psse_raw/240_bus_new_2.raw
0,   100.0, 33, 0, 1, 60.00     /  PSS(R)E 33 RAW created by Sienna2PF.jl  19-Mar-24-16-0
File Name: basic_2024
         
2030, 'BUS_2030', 20.0, 2, 2, 7, 1, 1.0015, -18.915430304308344, 1.1, 0.9, 1.1, 0.9
3907, 'BUS_3907', 230.0, 2, 2, 2, 1, 0.97274, -11.175864448793888, 1.1, 0.9, 1.1, 0.9
3913, 'BUS_3913', 230.0, 2, 2, 2, 1, 0.98301, -6.251361457473296, 1.1, 0.9, 1.1, 0.9
1451, 'BUS_1451', 20.0, 2, 1, 3, 1, 1.04071, -10.264092928945702, 1.1, 0.9, 1.1, 0.9
3301, 'BUS_3301', 500.0, 1, 2, 2, 1, 0.9986391903866778, 1.6980282939988007, 1.1, 0.9, 1.1, 0.9
2603, 'BUS_2603', 500.0, 1, 2, 2, 1, 1.055096970585044, -11.16504992086973, 1.1, 0.9, 1.1, 0.9
6305, 'BUS_6305', 230.0, 1, 3, 14, 1, 1.0677007126832805, 70.58488994882038, 1.1, 0.9, 1.1, 0.9
7041, 'BUS_7041', 20.0, 2, 3, 5, 1, 1.06004, 14.624909841185698, 1.1, 0.9, 1.1, 0.9
7045, 'BUS_7045', 20.0, 1, 3, 5, 1, 1.0165310700732237, 17.642940155153696, 1.1, 0.9, 1.1, 0.9
2913, 'BUS_2913', 20.0, 2, 2, 2, 1, 1.00984, -14.574857311659954, 1.1, 0.9, 1.1, 0.9
1432, 'BUS_1432', 20.0, 2, 1, 10, 1, 1.01695, 21.57899818761218, 1.1, 0.9, 1.1, 0.9
3912, 'BUS_3912', 230.0, 1, 2, 2, 1, 0.9967691526316855, 3.175808641109752, 1.1, 0.9, 1.1, 0.9
2533, 'BUS_2533', 20.0, 2, 2, 2, 1, 1.01004, -27.969505974736673, 1.1, 0.9, 1.1, 0.9
1001, 'BUS_1001', 500.0, 1, 1, 3, 1, 1.0252067825260633, 16.345443457916776, 1.1, 0.9, 1.1, 0.9
3836, 'BUS_3836', 230.0, 1, 2, 2, 1, 1.0190222839561867, -2.5808380767961605, 1.1, 0.9, 1.1, 0.9
3902, 'BUS_3902', 500.0, 1, 2, 2, 1, 1.0000956265026897, 3.1950408824815897, 1.1, 0.9, 1.1, 0.9
3404, 'BUS_3404', 230.0, 2, 2, 2, 1, 0.99111, -5.899564529207985, 1.1, 0.9, 1.1, 0.9
6203, 'BUS_6203', 230.0, 1, 3, 8, 1, 1.084284435639818, 64.76192625895445, 1.1, 0.9, 1.1, 0.9
2502, 'BUS_2502', 230.0, 2, 2, 2, 1, 1.02225, -24.974761842686245, 1.1, 0.9, 1.1, 0.9
6231, 'BUS_6231', 500.0, 1, 3, 8, 1, 1.1010350912286015, 70.65734374045653, 1.1, 0.9, 1.1, 0.9
2438, 'BUS_2438', 230.0, 1, 2, 2, 1, 1.009022856339321, -14.574857311659954, 1.1, 0.9, 1.1, 0.9
2614, 'BUS_2614', 230.0, 1, 2, 2, 1, 1.0019656361765887, -9.004344098575727, 1.1, 0.9, 1.1, 0.9
6403, 'BUS_6403', 345.0, 1, 1, 9, 1, 1.095721966183627, 38.550217804491254, 1.1, 0.9, 1.1, 0.9
2608, 'BUS_2608', 230.0, 1, 2, 2, 1, 1.0198978141328277, -13.732066310146426, 1.1, 0.9, 1.1, 0.9
3909, 'BUS_3909', 230.0, 1, 2, 2, 1, 0.9608026486084801, -5.561664278666481, 1.1, 0.9, 1.1, 0.9
6505, 'BUS_6505', 345.0, 1, 3, 12, 1, 1.0426374514736847, 30.986049074329475, 1.1, 0.9, 1.1, 0.9
6546, 'BUS_6546', 20.0, 1, 3, 14, 1, 1.1093180196102523, 76.38777573088392, 1.1, 0.9, 1.1, 0.9
6304, 'BUS_6304', 230.0, 1, 3, 14, 1, 1.01248894332676, 30.460693146017853, 1.1, 0.9, 1.1, 0.9
1439, 'BUS_1439', 20.0, 2, 1, 3, 1, 1.01081, -5.636873282249267, 1.1, 0.9, 1.1, 0.9
2612, 'BUS_2612', 230.0, 1, 2, 2, 1, 1.015011471488816, -13.136316994610132, 1.1, 0.9, 1.1, 0.9
3403, 'BUS_3403', 230.0, 2, 2, 2, 1, 1.0, -0.6213565635044167, 1.1, 0.9, 1.1, 0.9
2439, 'BUS_2439', 20.0, 2, 2, 2, 1, 1.01978, -22.182805065135394, 1.1, 0.9, 1.1, 0.9
3948, 'BUS_3948', 20.0, 2, 2, 2, 1, 1.01213, 5.391188275990917, 1.1, 0.9, 1.1, 0.9
1202, 'BUS_1202', 500.0, 1, 1, 3, 1, 1.0793401678414247, -0.34595084130417614, 1.1, 0.9, 1.1, 0.9
1448, 'BUS_1448', 20.0, 2, 1, 9, 1, 1.00879, -9.751913812878286, 1.1, 0.9, 1.1, 0.9
4248, 'BUS_4248', 20.0, 2, 3, 11, 1, 1.08568, 26.141303902316068, 1.1, 0.9, 1.1, 0.9
1435, 'BUS_1435', 20.0, 1, 1, 10, 1, 1.0414248195811762, 34.228876483650275, 1.1, 0.9, 1.1, 0.9
3942, 'BUS_3942', 20.0, 2, 2, 2, 1, 1.00044, -10.431243468254863, 1.1, 0.9, 1.1, 0.9
3911, 'BUS_3911', 230.0, 1, 2, 2, 1, 1.0244305557857438, 13.84595505408504, 1.1, 0.9, 1.1, 0.9
6553, 'BUS_6553', 20.0, 1, 1, 9, 1, 1.096173037531036, 38.70201862268784, 1.1, 0.9, 1.1, 0.9
1302, 'BUS_1302', 500.0, 1, 1, 9, 1, 1.0266250076061536, -7.71821003236828, 1.1, 0.9, 1.1, 0.9
7033, 'BUS_7033', 20.0, 1, 3, 12, 1, 1.0630083860445165, 46.28515935684038, 1.1, 0.9, 1.1, 0.9
5036, 'BUS_5036', 20.0, 2, 3, 1, 1, 1.06127, 67.28343261339616, 1.1, 0.9, 1.1, 0.9
6539, 'BUS_6539', 20.0, 1, 3, 8, 1, 1.1010350912286015, 70.65734374045653, 1.1, 0.9, 1.1, 0.9
3932, 'BUS_3932', 20.0, 2, 2, 2, 1, 0.99997, 3.5831972857296983, 1.1, 0.9, 1.1, 0.9
3105, 'BUS_3105', 115.0, 1, 2, 2, 1, 0.9997009104512226, -10.620858968293156, 1.1, 0.9, 1.1, 0.9
2601, 'BUS_2601', 500.0, 1, 2, 2, 1, 1.0474793084499745, -11.749658151964567, 1.1, 0.9, 1.1, 0.9
3432, 'BUS_3432', 20.0, 2, 2, 2, 1, 1.00065, -10.285180093587758, 1.1, 0.9, 1.1, 0.9
7037, 'BUS_7037', 20.0, 2, 3, 12, 1, 1.06786, 47.188951800492504, 1.1, 0.9, 1.1, 0.9
5034, 'BUS_5034', 20.0, 1, 3, 1, 1, 1.0460410221699168, 67.34885453446186, 1.1, 0.9, 1.1, 0.9
1034, 'BUS_1034', 345.0, 1, 1, 10, 1, 1.0414248195811762, 34.228876483650275, 1.1, 0.9, 1.1, 0.9
1441, 'BUS_1441', 20.0, 2, 1, 3, 1, 1.01081, -6.928417291639033, 1.1, 0.9, 1.1, 0.9
4273, 'BUS_4273', 20.0, 2, 3, 13, 1, 1.05964, 42.74370185535719, 1.1, 0.9, 1.1, 0.9
5001, 'BUS_5001', 500.0, 1, 3, 4, 1, 1.0483867932765314, 62.00934738420899, 1.1, 0.9, 1.1, 0.9
6506, 'BUS_6506', 345.0, 1, 3, 12, 1, 1.0392296893235462, 27.89314665571363, 1.1, 0.9, 1.1, 0.9
5002, 'BUS_5002', 500.0, 1, 3, 1, 1, 1.0474857358275165, 62.877844558510176, 1.1, 0.9, 1.1, 0.9
3531, 'BUS_3531', 20.0, 2, 2, 2, 1, 1.00057, 3.870882119890077, 1.1, 0.9, 1.1, 0.9
4260, 'BUS_4260', 20.0, 1, 3, 13, 1, 1.116315799514337, 40.19693837115517, 1.1, 0.9, 1.1, 0.9
1403, 'BUS_1403', 230.0, 1, 1, 3, 1, 1.0361548816587374, -12.717293334614713, 1.1, 0.9, 1.1, 0.9
4234, 'BUS_4234', 20.0, 2, 2, 2, 1, 1.01496, 13.692642169722513, 1.1, 0.9, 1.1, 0.9
5037, 'BUS_5037', 20.0, 2, 3, 1, 1, 1.06127, 68.64839101530497, 1.1, 0.9, 1.1, 0.9
4267, 'BUS_4267', 20.0, 2, 3, 13, 1, 1.09978, 61.657588827445686, 1.1, 0.9, 1.1, 0.9
3805, 'BUS_3805', 230.0, 2, 2, 2, 1, 1.035, -5.994610428992574, 1.1, 0.9, 1.1, 0.9
4269, 'BUS_4269', 20.0, 2, 3, 13, 1, 1.12161, 64.35084477596227, 1.1, 0.9, 1.1, 0.9
7034, 'BUS_7034', 20.0, 2, 3, 12, 1, 1.06786, 45.61405153399918, 1.1, 0.9, 1.1, 0.9
6510, 'BUS_6510', 230.0, 2, 3, 12, 1, 0.928, 34.92651135111223, 1.1, 0.9, 1.1, 0.9
4131, 'BUS_4131', 500.0, 1, 3, 13, 1, 1.1179843407707424, 69.92025532409282, 1.1, 0.9, 1.1, 0.9
4007, 'BUS_4007', 500.0, 1, 3, 11, 1, 1.1067170950881793, 41.572249800939794, 1.1, 0.9, 1.1, 0.9
2609, 'BUS_2609', 230.0, 1, 2, 2, 1, 0.9996645993725448, -10.87491862819076, 1.1, 0.9, 1.1, 0.9
4010, 'BUS_4010', 230.0, 1, 3, 11, 1, 1.1128705353597235, 39.710905561531774, 1.1, 0.9, 1.1, 0.9
6552, 'BUS_6552', 20.0, 2, 3, 14, 1, 1.06507, 71.07210569822803, 1.1, 0.9, 1.1, 0.9
2130, 'BUS_2130', 230.0, 1, 2, 2, 1, 1.0347520669062824, -13.659925857731473, 1.1, 0.9, 1.1, 0.9
3926, 'BUS_3926', 115.0, 1, 2, 2, 1, 0.9842423180284983, -4.545319872582288, 1.1, 0.9, 1.1, 0.9
7044, 'BUS_7044', 20.0, 2, 3, 5, 1, 1.00996, 18.183280652185033, 1.1, 0.9, 1.1, 0.9
3401, 'BUS_3401', 230.0, 2, 2, 2, 1, 0.97902, -11.143737491764004, 1.1, 0.9, 1.1, 0.9
4241, 'BUS_4241', 20.0, 1, 2, 2, 1, 1.0160742339242885, -1.1943951328457663, 1.1, 0.9, 1.1, 0.9
1433, 'BUS_1433', 20.0, 2, 1, 10, 1, 1.01695, 21.714968600233075, 1.1, 0.9, 1.1, 0.9
6545, 'BUS_6545', 20.0, 1, 3, 8, 1, 1.0815803054003552, 70.65311592098917, 1.1, 0.9, 1.1, 0.9
2604, 'BUS_2604', 345.0, 1, 2, 2, 1, 1.0577816624305516, 30.224435276476, 1.1, 0.9, 1.1, 0.9
2610, 'BUS_2610', 230.0, 1, 2, 2, 1, 1.0029327418265437, 3.115709032481721, 1.1, 0.9, 1.1, 0.9
6550, 'BUS_6550', 20.0, 1, 3, 14, 1, 1.0673070675947438, 70.74146116622407, 1.1, 0.9, 1.1, 0.9
2619, 'BUS_2619', 230.0, 1, 2, 2, 1, 1.0138487526381685, -12.746694097048247, 1.1, 0.9, 1.1, 0.9
4258, 'BUS_4258', 20.0, 1, 3, 13, 1, 1.1162255994438723, 40.9253057002088, 1.1, 0.9, 1.1, 0.9
3919, 'BUS_3919', 230.0, 1, 2, 2, 1, 0.9610534562742649, -2.8097844321549377, 1.1, 0.9, 1.1, 0.9
2607, 'BUS_2607', 287.0, 1, 2, 2, 1, 1.047499522265189, -10.86111750075367, 1.1, 0.9, 1.1, 0.9
3917, 'BUS_3917', 230.0, 1, 2, 2, 1, 1.0017609197102222, -4.0258900546490635, 1.1, 0.9, 1.1, 0.9
1436, 'BUS_1436', 20.0, 2, 1, 10, 1, 1.04386, 36.16668452834069, 1.1, 0.9, 1.1, 0.9
7040, 'BUS_7040', 20.0, 2, 3, 5, 1, 1.06004, 14.856740223130362, 1.1, 0.9, 1.1, 0.9
7042, 'BUS_7042', 20.0, 1, 3, 5, 1, 1.0510533346270408, 14.624909841185698, 1.1, 0.9, 1.1, 0.9
3924, 'BUS_3924', 230.0, 2, 2, 2, 1, 0.99219, 0.0017028971421492165, 1.1, 0.9, 1.1, 0.9
3501, 'BUS_3501', 230.0, 2, 2, 2, 1, 1.0, 3.56624078223657, 1.1, 0.9, 1.1, 0.9
3302, 'BUS_3302', 230.0, 2, 2, 2, 1, 0.98522, -4.55565543846748, 1.1, 0.9, 1.1, 0.9
6204, 'BUS_6204', 230.0, 1, 3, 8, 1, 1.0892001309583503, 58.94820743339128, 1.1, 0.9, 1.1, 0.9
4262, 'BUS_4262', 20.0, 2, 3, 13, 1, 1.12, 70.26344384220542, 1.1, 0.9, 1.1, 0.9
5032, 'BUS_5032', 500.0, 1, 3, 1, 1, 1.0484986457798464, 63.425150461851494, 1.1, 0.9, 1.1, 0.9
3946, 'BUS_3946', 20.0, 1, 2, 2, 1, 1.00982665949533, 3.655710435755387, 1.1, 0.9, 1.1, 0.9
8004, 'BUS_8004', 230.0, 2, 2, 2, 1, 1.0, -11.631547195609713, 1.1, 0.9, 1.1, 0.9
3835, 'BUS_3835', 230.0, 1, 2, 2, 1, 1.035078243206886, -5.975410325958369, 1.1, 0.9, 1.1, 0.9
2100, 'BUS_2100', 230.0, 1, 2, 2, 1, 1.0346021209222993, -13.729287293292721, 1.1, 0.9, 1.1, 0.9
2410, 'BUS_2410', 230.0, 2, 2, 2, 1, 1.00702, -17.653140063680933, 1.1, 0.9, 1.1, 0.9
2613, 'BUS_2613', 230.0, 2, 2, 2, 1, 0.99456, -7.484346150250291, 1.1, 0.9, 1.1, 0.9
4005, 'BUS_4005', 500.0, 1, 3, 11, 1, 1.1109303941577005, 44.21501762376118, 1.1, 0.9, 1.1, 0.9
2503, 'BUS_2503', 230.0, 2, 2, 2, 1, 1.009, -28.50332511950658, 1.1, 0.9, 1.1, 0.9
2638, 'BUS_2638', 20.0, 2, 2, 2, 1, 1.02018, -13.732066310146426, 1.1, 0.9, 1.1, 0.9
3333, 'BUS_3333', 230.0, 1, 2, 2, 1, 1.0002633985321832, -1.2026419643780204, 1.1, 0.9, 1.1, 0.9
1452, 'BUS_1452', 20.0, 2, 1, 3, 1, 1.04071, -8.09268146047404, 1.1, 0.9, 1.1, 0.9
4254, 'BUS_4254', 20.0, 2, 3, 11, 1, 1.12, 44.90548664391489, 1.1, 0.9, 1.1, 0.9
4272, 'BUS_4272', 20.0, 2, 3, 13, 1, 1.12, 62.557642191202014, 1.1, 0.9, 1.1, 0.9
6538, 'BUS_6538', 20.0, 2, 3, 6, 1, 1.12, 62.15484683232824, 1.1, 0.9, 1.1, 0.9
2904, 'BUS_2904', 20.0, 1, 2, 2, 1, 1.034751024230308, -13.578587724895119, 1.1, 0.9, 1.1, 0.9
6508, 'BUS_6508', 345.0, 1, 3, 12, 1, 1.0199954655745154, 36.83633831802641, 1.1, 0.9, 1.1, 0.9
6543, 'BUS_6543', 20.0, 2, 3, 8, 1, 1.07761, 70.44580972398177, 1.1, 0.9, 1.1, 0.9
2402, 'BUS_2402', 500.0, 2, 2, 2, 1, 1.02985, -20.57061821589081, 1.1, 0.9, 1.1, 0.9
1434, 'BUS_1434', 20.0, 1, 1, 10, 1, 1.0131474402609133, 21.436317553216863, 1.1, 0.9, 1.1, 0.9
2409, 'BUS_2409', 230.0, 2, 2, 2, 1, 1.02, -22.23788786878794, 1.1, 0.9, 1.1, 0.9
4031, 'BUS_4031', 500.0, 1, 3, 11, 1, 1.076451741549663, 25.168581852443275, 1.1, 0.9, 1.1, 0.9
4250, 'BUS_4250', 20.0, 1, 3, 11, 1, 1.076443111148642, 25.39801498042039, 1.1, 0.9, 1.1, 0.9
6302, 'BUS_6302', 345.0, 1, 3, 14, 1, 1.0345524458140214, 16.406311410038832, 1.1, 0.9, 1.1, 0.9
6536, 'BUS_6536', 20.0, 2, 3, 6, 1, 1.12, 63.4196181789933, 1.1, 0.9, 1.1, 0.9
1442, 'BUS_1442', 20.0, 1, 1, 3, 1, 1.0794705842750913, -0.1829320761283869, 1.1, 0.9, 1.1, 0.9
3937, 'BUS_3937', 20.0, 1, 2, 2, 1, 1.0581533919330206, 30.303113034173034, 1.1, 0.9, 1.1, 0.9
6303, 'BUS_6303', 230.0, 1, 3, 14, 1, 1.1087696707399817, 75.47958360493429, 1.1, 0.9, 1.1, 0.9
1446, 'BUS_1446', 20.0, 2, 1, 3, 1, 1.04514, -6.635321094666719, 1.1, 0.9, 1.1, 0.9
4246, 'BUS_4246', 20.0, 2, 2, 2, 1, 1.02, -1.1935990903584461, 1.1, 0.9, 1.1, 0.9
4261, 'BUS_4261', 20.0, 1, 3, 13, 1, 1.1179536897137177, 70.34452646338093, 1.1, 0.9, 1.1, 0.9
2434, 'BUS_2434', 20.0, 2, 2, 2, 1, 1.02, -12.618478276792422, 1.1, 0.9, 1.1, 0.9
1443, 'BUS_1443', 20.0, 2, 1, 3, 1, 1.08082, 0.2863068086383822, 1.1, 0.9, 1.1, 0.9
4274, 'BUS_4274', 20.0, 1, 3, 13, 1, 1.057756819905042, 42.851690919698676, 1.1, 0.9, 1.1, 0.9
1303, 'BUS_1303', 345.0, 2, 1, 9, 1, 1.005, -10.2182318120505, 1.1, 0.9, 1.1, 0.9
6507, 'BUS_6507', 345.0, 1, 3, 12, 1, 1.0257088884117898, 33.82755512936225, 1.1, 0.9, 1.1, 0.9
2912, 'BUS_2912', 20.0, 2, 2, 2, 1, 1.00984, -14.111516020527896, 1.1, 0.9, 1.1, 0.9
3803, 'BUS_3803', 500.0, 1, 2, 2, 1, 1.0404352712531255, -6.321459619805574, 1.1, 0.9, 1.1, 0.9
2000, 'BUS_2000', 230.0, 1, 2, 7, 1, 1.0000143951763065, -19.623997879348384, 1.1, 0.9, 1.1, 0.9
7031, 'BUS_7031', 345.0, 1, 3, 5, 1, 1.0510533346270408, 14.624909841185698, 1.1, 0.9, 1.1, 0.9
3910, 'BUS_3910', 230.0, 1, 2, 2, 1, 0.9474989896521476, -3.9359856962116617, 1.1, 0.9, 1.1, 0.9
4002, 'BUS_4002', 500.0, 1, 3, 11, 1, 1.1093358429956068, 33.48088939640207, 1.1, 0.9, 1.1, 0.9
6402, 'BUS_6402', 115.0, 1, 1, 9, 1, 1.003313552570829, 2.3544859882598006, 1.1, 0.9, 1.1, 0.9
6555, 'BUS_6555', 20.0, 2, 1, 9, 1, 1.1, 38.840695778991645, 1.1, 0.9, 1.1, 0.9
4201, 'BUS_4201', 500.0, 1, 3, 13, 1, 1.100315075923571, 61.659487211943095, 1.1, 0.9, 1.1, 0.9
2201, 'BUS_2201', 500.0, 1, 2, 2, 1, 0.9860218564745761, -31.07442436511544, 1.1, 0.9, 1.1, 0.9
1232, 'BUS_1232', 500.0, 1, 1, 3, 1, 1.0794705842750913, -0.1829320761283869, 1.1, 0.9, 1.1, 0.9
2901, 'BUS_2901', 500.0, 1, 2, 2, 1, 1.0991229078121032, -9.261673202743095, 1.1, 0.9, 1.1, 0.9
6501, 'BUS_6501', 345.0, 1, 3, 12, 1, 1.0087903371299536, 34.88970640239024, 1.1, 0.9, 1.1, 0.9
2401, 'BUS_2401', 500.0, 2, 2, 2, 1, 1.04969, -15.1841243489033, 1.1, 0.9, 1.1, 0.9
6533, 'BUS_6533', 345.0, 1, 3, 12, 1, 1.0631113108881716, 45.48787751571991, 1.1, 0.9, 1.1, 0.9
6549, 'BUS_6549', 20.0, 2, 3, 14, 1, 1.06507, 73.28966117608016, 1.1, 0.9, 1.1, 0.9
3806, 'BUS_3806', 230.0, 1, 2, 2, 1, 1.019027908798149, -2.6183028129056507, 1.1, 0.9, 1.1, 0.9
6503, 'BUS_6503', 345.0, 1, 3, 12, 1, 1.0625972532535102, 45.29935268938732, 1.1, 0.9, 1.1, 0.9
7043, 'BUS_7043', 20.0, 2, 3, 5, 1, 1.06004, 18.395036881621127, 1.1, 0.9, 1.1, 0.9
2233, 'BUS_2233', 230.0, 1, 2, 2, 1, 1.005322624312808, -34.2245688917043, 1.1, 0.9, 1.1, 0.9
3953, 'BUS_3953', 20.0, 2, 2, 2, 1, 1.00023, -0.3518308600549787, 1.1, 0.9, 1.1, 0.9
2916, 'BUS_2916', 20.0, 2, 2, 2, 1, 1.00984, -11.928851732599192, 1.1, 0.9, 1.1, 0.9
6544, 'BUS_6544', 20.0, 2, 3, 8, 1, 1.07761, 71.48410564203803, 1.1, 0.9, 1.1, 0.9
3204, 'BUS_3204', 230.0, 2, 2, 2, 1, 1.01, 2.0053085131776145, 1.1, 0.9, 1.1, 0.9
6554, 'BUS_6554', 20.0, 2, 1, 9, 1, 1.1, 39.412114743302006, 1.1, 0.9, 1.1, 0.9
2616, 'BUS_2616', 230.0, 1, 2, 2, 1, 0.9964381396489979, -7.804936106573771, 1.1, 0.9, 1.1, 0.9
4256, 'BUS_4256', 20.0, 2, 3, 11, 1, 1.12796, 45.55922203382829, 1.1, 0.9, 1.1, 0.9
4236, 'BUS_4236', 20.0, 2, 2, 2, 1, 1.03567, -5.807851919947928, 1.1, 0.9, 1.1, 0.9
8035, 'BUS_8035', 20.0, 2, 2, 2, 1, 1.00333, -9.091021106721941, 1.1, 0.9, 1.1, 0.9
3304, 'BUS_3304', 230.0, 2, 2, 2, 1, 0.98957, -3.3009058202330146, 1.1, 0.9, 1.1, 0.9
7046, 'BUS_7046', 20.0, 2, 3, 5, 1, 1.00996, 18.42664661831091, 1.1, 0.9, 1.1, 0.9
3402, 'BUS_3402', 230.0, 1, 2, 2, 1, 1.0000544753449943, -10.317351928384323, 1.1, 0.9, 1.1, 0.9
4035, 'BUS_4035', 500.0, 1, 3, 11, 1, 1.1121630526840247, 44.3328057038136, 1.1, 0.9, 1.1, 0.9
4235, 'BUS_4235', 20.0, 2, 2, 2, 1, 1.01496, 13.661776337224453, 1.1, 0.9, 1.1, 0.9
3940, 'BUS_3940', 20.0, 2, 2, 2, 1, 1.00114, -2.715134534300287, 1.1, 0.9, 1.1, 0.9
2617, 'BUS_2617', 230.0, 1, 2, 2, 1, 0.9976124330926144, -9.475374435837407, 1.1, 0.9, 1.1, 0.9
3915, 'BUS_3915', 230.0, 1, 2, 2, 1, 0.9902869013555992, -0.31405675527837973, 1.1, 0.9, 1.1, 0.9
6556, 'BUS_6556', 20.0, 1, 1, 9, 1, 1.0961743720813055, 38.61261289942095, 1.1, 0.9, 1.1, 0.9
2905, 'BUS_2905', 20.0, 2, 2, 2, 1, 1.03579, -13.057975057859055, 1.1, 0.9, 1.1, 0.9
3947, 'BUS_3947', 20.0, 1, 2, 2, 1, 1.0101398651520512, 2.2288782560964018, 1.1, 0.9, 1.1, 0.9
2611, 'BUS_2611', 230.0, 1, 2, 2, 1, 1.017718629868894, -12.929268271325764, 1.1, 0.9, 1.1, 0.9
2404, 'BUS_2404', 500.0, 1, 2, 2, 1, 1.0341234140471287, -10.233385511394738, 1.1, 0.9, 1.1, 0.9
1401, 'BUS_1401', 500.0, 2, 1, 3, 1, 1.035, -12.518069527326071, 1.1, 0.9, 1.1, 0.9
2630, 'BUS_2630', 230.0, 1, 2, 2, 1, 1.0030824796289672, 3.244934776731283, 1.1, 0.9, 1.1, 0.9
3802, 'BUS_3802', 500.0, 1, 2, 2, 1, 1.0352724215575668, -4.055999433409536, 1.1, 0.9, 1.1, 0.9
3920, 'BUS_3920', 230.0, 1, 2, 2, 1, 0.9749429794042992, -5.304486198571824, 1.1, 0.9, 1.1, 0.9
6551, 'BUS_6551', 20.0, 2, 3, 14, 1, 1.06507, 71.00261435780384, 1.1, 0.9, 1.1, 0.9
3903, 'BUS_3903', 500.0, 1, 2, 2, 1, 0.9998084126134561, 5.1629660406785876, 1.1, 0.9, 1.1, 0.9
1402, 'BUS_1402', 500.0, 2, 1, 3, 1, 1.05807, -17.893938992491197, 1.1, 0.9, 1.1, 0.9
3933, 'BUS_3933', 230.0, 1, 2, 2, 1, 1.0160742375241287, -1.1992181245882128, 1.1, 0.9, 1.1, 0.9
4104, 'BUS_4104', 230.0, 1, 3, 13, 1, 1.0568702139692299, 43.07835618846781, 1.1, 0.9, 1.1, 0.9
1438, 'BUS_1438', 20.0, 1, 1, 10, 1, 1.0409766857153908, 35.909781315292086, 1.1, 0.9, 1.1, 0.9
6101, 'BUS_6101', 500.0, 1, 3, 6, 1, 1.1410138180413105, 58.31449955829489, 1.1, 0.9, 1.1, 0.9
4240, 'BUS_4240', 20.0, 1, 2, 2, 1, 1.0190222839561867, -2.5808380767961605, 1.1, 0.9, 1.1, 0.9
2400, 'BUS_2400', 500.0, 2, 2, 2, 1, 1.0244, -21.16187670939474, 1.1, 0.9, 1.1, 0.9
4249, 'BUS_4249', 20.0, 2, 3, 11, 1, 1.08568, 25.509804648248203, 1.1, 0.9, 1.1, 0.9
4276, 'BUS_4276', 20.0, 1, 3, 13, 1, 1.0577777587885957, 42.49118044152985, 1.1, 0.9, 1.1, 0.9
3234, 'BUS_3234', 230.0, 1, 2, 2, 1, 1.0101398651520512, 2.2288782560964018, 1.1, 0.9, 1.1, 0.9
3936, 'BUS_3936', 20.0, 2, 2, 2, 1, 1.06198, 31.08680442440116, 1.1, 0.9, 1.1, 0.9
5035, 'BUS_5035', 20.0, 1, 3, 1, 1, 1.0484619276916955, 63.90465750519631, 1.1, 0.9, 1.1, 0.9
3905, 'BUS_3905', 500.0, 1, 2, 2, 1, 1.0056076637135853, 14.135118334106114, 1.1, 0.9, 1.1, 0.9
4001, 'BUS_4001', 500.0, 1, 3, 11, 1, 1.075540152393096, 25.083066254090227, 1.1, 0.9, 1.1, 0.9
3922, 'BUS_3922', 230.0, 1, 2, 2, 1, 0.9766661243915779, 3.1384744513110574, 1.1, 0.9, 1.1, 0.9
4132, 'BUS_4132', 500.0, 1, 3, 13, 1, 1.0915126903079, 59.1975641243794, 1.1, 0.9, 1.1, 0.9
3906, 'BUS_3906', 500.0, 1, 2, 2, 1, 1.0509078544245183, 21.107635733991767, 1.1, 0.9, 1.1, 0.9
6509, 'BUS_6509', 345.0, 1, 3, 12, 1, 1.0092576075367106, 34.412373727285534, 1.1, 0.9, 1.1, 0.9
8034, 'BUS_8034', 230.0, 1, 2, 2, 1, 1.0003363527124711, -11.451641368249204, 1.1, 0.9, 1.1, 0.9
3939, 'BUS_3939', 20.0, 2, 2, 2, 1, 1.00114, -2.714276191368665, 1.1, 0.9, 1.1, 0.9
8002, 'BUS_8002', 500.0, 1, 2, 2, 1, 1.0026353790724238, 4.713706835214148, 1.1, 0.9, 1.1, 0.9
7036, 'BUS_7036', 20.0, 2, 3, 12, 1, 1.06786, 47.33664618525183, 1.1, 0.9, 1.1, 0.9
...
0 /End of Bus data, Begin Load data
1202, '1 ', 1, 1, 3, 875.61, 287.132, 0.0, 0.0, 0.0, 0.0, 1, 1, 0
2409, '1 ', 1, 2, 2, 1601.7780000000002, -86.698, 0.0, 0.0, 0.0, 0.0, 1, 1, 0
3204, '1 ', 1, 2, 2, 668.788, 95.313, 0.0, 0.0, 0.0, 0.0, 1, 1, 0
2619, '1 ', 1, 2, 2, -2773.83, 0.0, 0.0, 0.0, 0.0, 0.0, 1, 1, 0
8003, '1 ', 1, 2, 2, 652.672, 85.141, 0.0, 0.0, 0.0, 0.0, 1, 1, 0
3205, '1 ', 1, 2, 2, 546.059, 77.781, 0.0, 0.0, 0.0, 0.0, 1, 1, 0
2000, '1 ', 1, 2, 7, 2207.188, 287.916, 0.0, 0.0, 0.0, 0.0, 1, 1, 0
6301, '1 ', 1, 3, 14, 516.375, 67.362, 0.0, 0.0, 0.0, 0.0, 1, 1, 0
3601, '1 ', 1, 2, 2, 104.856, 14.845, 0.0, 0.0, 0.0, 0.0, 1, 1, 0
3909, '1 ', 1, 2, 2, 170.96, 39.786, 0.0, 0.0, 0.0, 0.0, 1, 1, 0
3910, '1 ', 1, 2, 2, 241.844, 34.442, 0.0, 0.0, 0.0, 0.0, 1, 1, 0
2407, '1 ', 1, 2, 2, 1732.775, -36.535, 0.0, 0.0, 0.0, 0.0, 1, 1, 0
2620, '1 ', 1, 2, 2, 203.72, 17.473, 0.0, 0.0, 0.0, 0.0, 1, 1, 0
3924, '1 ', 1, 2, 2, 332.49, 47.166, 0.0, 0.0, 0.0, 0.0, 1, 1, 0
6102, '1 ', 1, 3, 6, 1053.144, -345.277, 0.0, 0.0, 0.0, 0.0, 1, 1, 0
2502, '1 ', 1, 2, 2, 2369.146, -91.905, 0.0, 0.0, 0.0, 0.0, 1, 1, 0
6203, '1 ', 1, 3, 8, 612.344, 145.092, 0.0, 0.0, 0.0, 0.0, 1, 1, 0
4010, '1 ', 1, 3, 11, 3133.542, 0.0, 0.0, 0.0, 0.0, 0.0, 1, 1, 0
3105, '1 ', 1, 2, 2, 239.302, 49.091, 0.0, 0.0, 0.0, 0.0, 1, 1, 0
2618, '1 ', 1, 2, 2, 881.302, -6.155, 0.0, 0.0, 0.0, 0.0, 1, 1, 0
3403, '1 ', 1, 2, 2, 515.969, 73.583, 0.0, 0.0, 0.0, 0.0, 1, 1, 0
6402, '1 ', 1, 1, 9, 272.521, 35.568, 0.0, 0.0, 0.0, 0.0, 1, 1, 0
3923, '1 ', 1, 2, 2, 399.063, 67.021, 0.0, 0.0, 0.0, 0.0, 1, 1, 0
3903, '1 ', 1, 2, 2, 213.25300000000001, 30.271000000000004, 0.0, 0.0, 0.0, 0.0, 1, 1, 0
3801, '1 ', 1, 2, 2, 191.223, 47.411, 0.0, 0.0, 0.0, 0.0, 1, 1, 0
3305, '1 ', 1, 2, 2, 430.321, 61.224999999999994, 0.0, 0.0, 0.0, 0.0, 1, 1, 0
3202, '1 ', 1, 2, 2, 586.18, 83.474, 0.0, 0.0, 0.0, 0.0, 1, 1, 0
6204, '1 ', 1, 3, 8, 698.958, 156.31, 0.0, 0.0, 0.0, 0.0, 1, 1, 0
6303, '1 ', 1, 3, 14, 746.602, 97.404, 0.0, 0.0, 0.0, 0.0, 1, 1, 0
4102, '1 ', 1, 3, 13, 480.649, 68.664, 0.0, 0.0, 0.0, 0.0, 1, 1, 0
2600, '1 ', 1, 2, 2, -1863.906, 0.0, 0.0, 0.0, 0.0, 0.0, 1, 1, 0
3203, '1 ', 1, 2, 2, 657.104, 158.475, 0.0, 0.0, 0.0, 0.0, 1, 1, 0
4104, '1 ', 1, 3, 13, 2521.452, 328.093, 0.0, 0.0, 0.0, 0.0, 1, 1, 0
6504, '1 ', 1, 3, 12, 296.971, 38.731, 0.0, 0.0, 0.0, 0.0, 1, 1, 0
3926, '1 ', 1, 2, 2, 267.355, 16.668, 0.0, 0.0, 0.0, 0.0, 1, 1, 0
2609, '1 ', 1, 2, 2, 134.026, 26.805, 0.0, 0.0, 0.0, 0.0, 1, 1, 0
6510, '1 ', 1, 3, 12, 1900.043, -103.882, 0.0, 0.0, 0.0, 0.0, 1, 1, 0
6404, '1 ', 1, 1, 9, 28.981, 3.7759999999999994, 0.0, 0.0, 0.0, 0.0, 1, 1, 0
3913, '1 ', 1, 2, 2, 329.548, 43.435, 0.0, 0.0, 0.0, 0.0, 1, 1, 0
5001, '1 ', 1, 3, 4, 7574.052000000001, 1721.375, 0.0, 0.0, 0.0, 0.0, 1, 1, 0
3915, '1 ', 1, 2, 2, 254.46, 53.403, 0.0, 0.0, 0.0, 0.0, 1, 1, 0
2411, '1 ', 1, 2, 2, 1087.628, 75.956, 0.0, 0.0, 0.0, 0.0, 1, 1, 0
4103, '1 ', 1, 3, 13, 11.534, 1.485, 0.0, 0.0, 0.0, 0.0, 1, 1, 0
2405, '1 ', 1, 2, 2, 824.686, 22.901, 0.0, 0.0, 0.0, 0.0, 1, 1, 0
3302, '1 ', 1, 2, 2, 345.326, 85.79, 0.0, 0.0, 0.0, 0.0, 1, 1, 0
1004, '1 ', 1, 1, 10, 1037.949, 5.521, 0.0, 0.0, 0.0, 0.0, 1, 1, 0
6302, '1 ', 1, 3, 14, 591.831, 77.222, 0.0, 0.0, 0.0, 0.0, 1, 1, 0
3404, '1 ', 1, 2, 2, 438.463, 62.076, 0.0, 0.0, 0.0, 0.0, 1, 1, 0
8004, '1 ', 1, 2, 2, 3787.8929999999996, 494.11000000000007, 0.0, 0.0, 0.0, 0.0, 1, 1, 0
3917, '1 ', 1, 2, 2, 238.189, 43.995, 0.0, 0.0, 0.0, 0.0, 1, 1, 0
2410, '1 ', 1, 2, 2, 1576.785, 58.184000000000005, 0.0, 0.0, 0.0, 0.0, 1, 1, 0
3303, '1 ', 1, 2, 2, 625.411, 150.715, 0.0, 0.0, 0.0, 0.0, 1, 1, 0
6501, '1 ', 1, 3, 12, 195.548, 64.13, 0.0, 0.0, 0.0, 0.0, 1, 1, 0
4009, '1 ', 1, 3, 11, 2208.742, 431.39500000000004, 0.0, 0.0, 0.0, 0.0, 1, 1, 0
2610, '1 ', 1, 2, 2, 99.278, 12.955, 0.0, 0.0, 0.0, 0.0, 1, 1, 0
2616, '1 ', 1, 2, 2, 116.157, 23.827, 0.0, 0.0, 0.0, 0.0, 1, 1, 0
6502, '1 ', 1, 3, 12, 1555.598, 277.679, 0.0, 0.0, 0.0, 0.0, 1, 1, 0
6205, '1 ', 1, 3, 8, 489.283, 86.344, 0.0, 0.0, 0.0, 0.0, 1, 1, 0
3920, '1 ', 1, 2, 2, 172.503, 23.677, 0.0, 0.0, 0.0, 0.0, 1, 1, 0
3805, '1 ', 1, 2, 2, 499.389, 163.106, 0.0, 0.0, 0.0, 0.0, 1, 1, 0
5002, '1 ', 1, 3, 1, 9003.983, 1174.359, 0.0, 0.0, 0.0, 0.0, 1, 1, 0
2403, '1 ', 1, 2, 2, 1050.001, 38.542, 0.0, 0.0, 0.0, 0.0, 1, 1, 0
2602, '1 ', 1, 2, 2, 99.278, 12.955, 0.0, 0.0, 0.0, 0.0, 1, 1, 0
3102, '1 ', 1, 2, 2, 159.465, 24.929, 0.0, 0.0, 0.0, 0.0, 1, 1, 0
2613, '1 ', 1, 2, 2, 317.693, 64.531, 0.0, 0.0, 0.0, 0.0, 1, 1, 0
2408, '1 ', 1, 2, 2, 1743.278, -72.623, 0.0, 0.0, 0.0, 0.0, 1, 1, 0
2503, '1 ', 1, 2, 2, 1845.926, 201.99100000000004, 0.0, 0.0, 0.0, 0.0, 1, 1, 0
1201, '1 ', 1, 1, 3, 166.989, -2.012, 0.0, 0.0, 0.0, 0.0, 1, 1, 0
3101, '1 ', 1, 2, 2, 341.307, 52.829, 0.0, 0.0, 0.0, 0.0, 1, 1, 0
4004, '1 ', 1, 3, 11, 270.476, 35.304, 0.0, 0.0, 0.0, 0.0, 1, 1, 0
1303, '1 ', 1, 1, 9, 6235.137, 813.349, 0.0, 0.0, 0.0, 0.0, 1, 1, 0
4201, '1 ', 1, 3, 13, 5762.659, 461.013, 0.0, 0.0, 0.0, 0.0, 1, 1, 0
3405, '1 ', 1, 2, 2, 448.8960000000001, 63.723, 0.0, 0.0, 0.0, 0.0, 1, 1, 0
4204, '1 ', 1, 3, 13, 1014.517, 132.339, 0.0, 0.0, 0.0, 0.0, 1, 1, 0
2604, '1 ', 1, 2, 2, 2050.781, 0.0, 0.0, 0.0, 0.0, 0.0, 1, 1, 0
2400, '1 ', 1, 2, 2, 843.2970000000001, 76.664, 0.0, 0.0, 0.0, 0.0, 1, 1, 0
2402, '1 ', 1, 2, 2, 1080.022, 81.979, 0.0, 0.0, 0.0, 0.0, 1, 1, 0
1402, '1 ', 1, 1, 3, 5366.628, -600.161, 0.0, 0.0, 0.0, 0.0, 1, 1, 0
3922, '1 ', 1, 2, 2, 253.45, 31.920000000000005, 0.0, 0.0, 0.0, 0.0, 1, 1, 0
2614, '1 ', 1, 2, 2, 137.005, 27.798000000000002, 0.0, 0.0, 0.0, 0.0, 1, 1, 0
2202, '1 ', 1, 2, 2, 1545.957, 268.567, 0.0, 0.0, 0.0, 0.0, 1, 1, 0
7002, '1 ', 1, 3, 5, 2554.834, -138.069, 0.0, 0.0, 0.0, 0.0, 1, 1, 0
3918, '1 ', 1, 2, 2, 319.281, 75.463, 0.0, 0.0, 0.0, 0.0, 1, 1, 0
3914, '1 ', 1, 2, 2, 227.75499999999997, 52.549, 0.0, 0.0, 0.0, 0.0, 1, 1, 0
3401, '1 ', 1, 2, 2, 557.707, 135.909, 0.0, 0.0, 0.0, 0.0, 1, 1, 0
1003, '1 ', 1, 1, 10, 2153.32, 366.855, 0.0, 0.0, 0.0, 0.0, 1, 1, 0
6201, '1 ', 1, 3, 8, 205.82, 26.857, 0.0, 0.0, 0.0, 0.0, 1, 1, 0
2100, '1 ', 1, 2, 2, 281.15, 54.83, 0.0, 0.0, 0.0, 0.0, 1, 1, 0
3907, '1 ', 1, 2, 2, 461.358, 63.071, 0.0, 0.0, 0.0, 0.0, 1, 1, 0
6509, '1 ', 1, 3, 12, 8.593, 2.817, 0.0, 0.0, 0.0, 0.0, 1, 1, 0
4002, '1 ', 1, 3, 11, 168.696, 22.001, 0.0, 0.0, 0.0, 0.0, 1, 1, 0
6503, '1 ', 1, 3, 12, 441.153, 144.603, 0.0, 0.0, 0.0, 0.0, 1, 1, 0
3902, '1 ', 1, 2, 2, 152.991, 38.248, 0.0, 0.0, 0.0, 0.0, 1, 1, 0
6305, '1 ', 1, 3, 14, 60.232, 19.752, 0.0, 0.0, 0.0, 0.0, 1, 1, 0
1101, '1 ', 1, 1, 3, 4527.366, -137.044, 0.0, 0.0, 0.0, 0.0, 1, 1, 0
1401, '1 ', 1, 1, 3, 6535.537000000001, 1524.594, 0.0, 0.0, 0.0, 0.0, 1, 1, 0
3103, '1 ', 1, 2, 2, 419.611, 59.777, 0.0, 0.0, 0.0, 0.0, 1, 1, 0
3911, '1 ', 1, 2, 2, 233.13800000000003, 47.116, 0.0, 0.0, 0.0, 0.0, 1, 1, 0
2203, '1 ', 1, 2, 2, 1708.552, 278.273, 0.0, 0.0, 0.0, 0.0, 1, 1, 0
4008, '1 ', 1, 3, 11, 285.145, 37.198, 0.0, 0.0, 0.0, 0.0, 1, 1, 0
4202, '1 ', 1, 3, 13, 4558.239, 594.626, 0.0, 0.0, 0.0, 0.0, 1, 1, 0
6505, '1 ', 1, 3, 12, 6.795, 2.231, 0.0, 0.0, 0.0, 0.0, 1, 1, 0
6507, '1 ', 1, 3, 12, 540.787, -61.35699999999999, 0.0, 0.0, 0.0, 0.0, 1, 1, 0
7001, '1 ', 1, 3, 5, 7000.918, 772.35, 0.0, 0.0, 0.0, 0.0, 1, 1, 0
1102, '1 ', 1, 1, 3, 176.445, 23.004, 0.0, 0.0, 0.0, 0.0, 1, 1, 0
2612, '1 ', 1, 2, 2, 120.12700000000001, 24.819, 0.0, 0.0, 0.0, 0.0, 1, 1, 0
3806, '1 ', 1, 2, 2, 289.586, 41.366, 0.0, 0.0, 0.0, 0.0, 1, 1, 0
1301, '1 ', 1, 1, 3, 2704.779, 352.826, 0.0, 0.0, 0.0, 0.0, 1, 1, 0
3304, '1 ', 1, 2, 2, 533.48, 122.61499999999998, 0.0, 0.0, 0.0, 0.0, 1, 1, 0
3104, '1 ', 1, 2, 2, 309.973, 40.133, 0.0, 0.0, 0.0, 0.0, 1, 1, 0
3916, '1 ', 1, 2, 2, 155.005, 0.0, 0.0, 0.0, 0.0, 0.0, 1, 1, 0
3912, '1 ', 1, 2, 2, 174.507, -0.634, 0.0, 0.0, 0.0, 0.0, 1, 1, 0
1002, '1 ', 1, 1, 3, 226.84200000000004, -600.0, 0.0, 0.0, 0.0, 0.0, 1, 1, 0
2608, '1 ', 1, 2, 2, 99.278, 12.955, 0.0, 0.0, 0.0, 0.0, 1, 1, 0
3921, '1 ', 1, 2, 2, 150.89, 34.821, 0.0, 0.0, 0.0, 0.0, 1, 1, 0
6104, '1 ', 1, 3, 6, 1694.827, 221.051, 0.0, 0.0, 0.0, 0.0, 1, 1, 0
2615, '1 ', 1, 2, 2, 801.977, 131.149, 0.0, 0.0, 0.0, 0.0, 1, 1, 0
6403, '1 ', 1, 1, 9, 2.198, 0.272, 0.0, 0.0, 0.0, 0.0, 1, 1, 0
6401, '1 ', 1, 1, 9, 1672.4540000000002, 218.169, 0.0, 0.0, 0.0, 0.0, 1, 1, 0
4005, '1 ', 1, 3, 11, 480.11400000000003, 157.419, 0.0, 0.0, 0.0, 0.0, 1, 1, 0
6103, '1 ', 1, 3, 6, 391.884, 51.109, 0.0, 0.0, 0.0, 0.0, 1, 1, 0
3919, '1 ', 1, 2, 2, 184.512, 24.095, 0.0, 0.0, 0.0, 0.0, 1, 1, 0
2621, '1 ', 1, 2, 2, 235.49100000000004, -62.746, 0.0, 0.0, 0.0, 0.0, 1, 1, 0
2406, '1 ', 1, 2, 2, 737.405, -40.751, 0.0, 0.0, 0.0, 0.0, 1, 1, 0
6508, '1 ', 1, 3, 12, 131.835, 43.209, 0.0, 0.0, 0.0, 0.0, 1, 1, 0
3804, '1 ', 1, 2, 2, 223.641, 55.31900000000001, 0.0, 0.0, 0.0, 0.0, 1, 1, 0
3701, '1 ', 1, 1, 9, 317.051, 15.847, 0.0, 0.0, 0.0, 0.0, 1, 1, 0
8005, '1 ', 1, 2, 2, 1321.252, 172.374, 0.0, 0.0, 0.0, 0.0, 1, 1, 0
2401, '1 ', 1, 2, 2, 882.365, 105.21400000000001, 0.0, 0.0, 0.0, 0.0, 1, 1, 0
3501, '1 ', 1, 2, 2, 625.016, 89.015, 0.0, 0.0, 0.0, 0.0, 1, 1, 0
2617, '1 ', 1, 2, 2, 120.12799999999999, 24.819, 0.0, 0.0, 0.0, 0.0, 1, 1, 0
4203, '1 ', 1, 3, 13, 4379.174, 571.213, 0.0, 0.0, 0.0, 0.0, 1, 1, 0
4101, '1 ', 1, 3, 13, 995.0279999999999, 129.784, 0.0, 0.0, 0.0, 0.0, 1, 1, 0
5003, '1 ', 1, 3, 1, 616.617, 80.618, 0.0, 0.0, 0.0, 0.0, 1, 1, 0
1302, '1 ', 1, 1, 9, 17.556, 2.304, 0.0, 0.0, 0.0, 0.0, 1, 1, 0
3908, '1 ', 1, 2, 2, 200.281, 24.716, 0.0, 0.0, 0.0, 0.0, 1, 1, 0
2611, '1 ', 1, 2, 2, 99.278, 12.955, 0.0, 0.0, 0.0, 0.0, 1, 1, 0
3201, '1 ', 1, 2, 2, 462.477, 97.849, 0.0, 0.0, 0.0, 0.0, 1, 1, 0
6202, '1 ', 1, 3, 8, 88.645, 13.505, 0.0, 0.0, 0.0, 0.0, 1, 1, 0
0 /End of Load data, Begin Fixed shunt data
6302, 4, 1, 0.0, 0.0
4001, 1, 1, 0.0, 600.0
6304, 5, 1, 0.0, 500.0
4005, 2, 1, 0.0, 0.0
6401, 6, 1, 0.0, 600.0
7001, 7, 1, 0.0, 0.0
6104, 3, 1, 0.0, 300.0
0 /End of Fixed shunt data, Begin Generator data
2911, 'GF ', 221.0, 0.0, 955.3187138332422, 0.0, 1.0089848187966475, 0, 1146.0, 0.0, 1.0, 0.0, 0.0, 1.0, 1, 100.0, 955.3187138332422, 0.0, 1, 1.0, 0, 1.0
4261, 'GF ', 617.0, 0.0, 537.4245295853177, 0.0, 1.1179536897137177, 0, 790.0, 0.0, 1.0, 0.0, 0.0, 1.0, 1, 100.0, 537.4245295853177, 0.0, 1, 1.0, 0, 1.0
6534, 'GF ', 559.0, 0.0, 670.269692922185, 0.0, 1.1214439994046306, 0, 973.0, 0.0, 1.0, 0.0, 0.0, 1.0, 1, 100.0, 670.269692922185, 0.0, 1, 1.0, 0, 1.0
2533, 'GF ', 1898.9999999999998, 218.93478214420136, 1551.8361547695683, 0.0, 1.01004, 0, 1999.0, 0.0, 1.0, 0.0, 0.0, 1.0, 1, 100.0, 1551.8361547695683, 0.0, 1, 1.0, 0, 1.0
3946, 'GF ', 1016.0, 0.0, 1173.6500756187936, 0.0, 1.00982665949533, 0, 1740.0, 0.0, 1.0, 0.0, 0.0, 1.0, 1, 100.0, 1173.6500756187936, 0.0, 1, 1.0, 0, 1.0
2918, 'GF ', 664.0, 0.0, 2192.5066989635407, 0.0, 1.0086792248555336, 0, 3210.0, 0.0, 1.0, 0.0, 0.0, 1.0, 1, 100.0, 2192.5066989635407, 0.0, 1, 1.0, 0, 1.0
3932, 'GF ', 1355.0, -20.184135097385894, 1256.5253857363966, 0.0, 0.99997, 0, 1426.0, 0.0, 1.0, 0.0, 0.0, 1.0, 1, 100.0, 1256.5253857363966, 0.0, 1, 1.0, 0, 1.0
2904, 'GF ', 76.0, 0.0, 98.31470515645155, 0.0, 1.034751024230308, 0, 115.0, 0.0, 1.0, 0.0, 0.0, 1.0, 1, 100.0, 98.31470515645155, 0.0, 1, 1.0, 0, 1.0
5034, 'GF ', 3002.0000000000005, 0.0, 3347.799821980101, 0.0, 1.0460410221699168, 0, 4410.2, 0.0, 1.0, 0.0, 0.0, 1.0, 1, 100.0, 3347.799821980101, 0.0, 1, 1.0, 0, 1.0
1438, 'GF ', 1590.0, 0.0, 1263.5830819538542, 0.0, 1.0409766857153908, 0, 1682.0, 0.0, 1.0, 0.0, 0.0, 1.0, 1, 100.0, 1263.5830819538542, 0.0, 1, 1.0, 0, 1.0
4251, 'GF ', 156.0, 0.0, 336.93613823690686, 0.0, 1.0764478394403274, 0, 427.0, 0.0, 1.0, 0.0, 0.0, 1.0, 1, 100.0, 336.93613823690686, 0.0, 1, 1.0, 0, 1.0
6545, 'GF ', 312.0, 0.0, 502.9319039392908, 0.0, 1.0815803054003552, 0, 720.0, 0.0, 1.0, 0.0, 0.0, 1.0, 1, 100.0, 502.9319039392908, 0.0, 1, 1.0, 0, 1.0
2431, 'GF ', 499.99999999999994, 325.6134121740545, 1253.9815170089232, 0.0, 1.05, 0, 1666.0, 0.0, 1.0, 0.0, 0.0, 1.0, 1, 100.0, 1253.9815170089232, 0.0, 1, 1.0, 0, 1.0
4258, 'GF ', 791.9999999999999, 0.0, 935.9087161684096, 0.0, 1.1162255994438723, 0, 1290.0, 0.0, 1.0, 0.0, 0.0, 1.0, 1, 100.0, 935.9087161684096, 0.0, 1, 1.0, 0, 1.0
2332, 'GF ', 878.0, 124.92601278758328, 987.8619140598548, 0.0, 1.0356, 0, 1333.0, 0.0, 1.0, 0.0, 0.0, 1.0, 1, 100.0, 987.8619140598548, 0.0, 1, 1.0, 0, 1.0
7033, 'GF ', 629.0, 0.0, 1009.1167480772481, 0.0, 1.0630083860445165, 0, 1407.0, 0.0, 1.0, 0.0, 0.0, 1.0, 1, 100.0, 1009.1167480772481, 0.0, 1, 1.0, 0, 1.0
5035, 'GF ', 368.00000000000006, 0.0, 410.8440108483999, 0.0, 1.0484619276916955, 0, 541.0, 0.0, 1.0, 0.0, 0.0, 1.0, 1, 100.0, 410.8440108483999, 0.0, 1, 1.0, 0, 1.0
3952, 'GF ', 745.0, 0.0, 1165.5327301281593, 0.0, 0.9999869674666841, 0, 1426.0, 0.0, 1.0, 0.0, 0.0, 1.0, 1, 100.0, 1165.5327301281593, 0.0, 1, 1.0, 0, 1.0
1449, 'GF ', 1265.9999999999998, 0.0, 1869.2931046922524, 0.0, 1.0051529667513672, 0, 2423.0, 0.0, 1.0, 0.0, 0.0, 1.0, 1, 100.0, 1869.2931046922524, 0.0, 1, 1.0, 0, 1.0
4237, 'GF ', 150.0, 0.0, 962.7155141837075, 0.0, 1.035075960669526, 0, 1333.0, 0.0, 1.0, 0.0, 0.0, 1.0, 1, 100.0, 962.7155141837075, 0.0, 1, 1.0, 0, 1.0
6546, 'GF ', 1022.0, 0.0, 1030.4008206761096, 0.0, 1.1093180196102523, 0, 1489.0, 0.0, 1.0, 0.0, 0.0, 1.0, 1, 100.0, 1030.4008206761096, 0.0, 1, 1.0, 0, 1.0
7045, 'GF ', 475.99999999999994, 0.0, 521.7476449395818, 0.0, 1.0165310700732237, 0, 738.0, 0.0, 1.0, 0.0, 0.0, 1.0, 1, 100.0, 521.7476449395818, 0.0, 1, 1.0, 0, 1.0
4274, 'GF ', 352.0, 0.0, 473.07190917449327, 0.0, 1.057756819905042, 0, 695.0, 0.0, 1.0, 0.0, 0.0, 1.0, 1, 100.0, 473.07190917449327, 0.0, 1, 1.0, 0, 1.0
2439, 'GF ', 999.9999999999999, -223.8709118207161, 1253.9815170089232, 0.0, 1.01978, 0, 1666.0, 0.0, 1.0, 0.0, 0.0, 1.0, 1, 100.0, 1253.9815170089232, 0.0, 1, 1.0, 0, 1.0
7039, 'GF ', 1220.0, 0.0, 2203.024113576608, 0.0, 1.0504756979550902, 0, 3106.0, 0.0, 1.0, 0.0, 0.0, 1.0, 1, 100.0, 2203.024113576608, 0.0, 1, 1.0, 0, 1.0
4250, 'GF ', 232.0, 0.0, 459.0809092632801, 0.0, 1.076443111148642, 0, 635.0, 0.0, 1.0, 0.0, 0.0, 1.0, 1, 100.0, 459.0809092632801, 0.0, 1, 1.0, 0, 1.0
4255, 'GF ', 774.9999999999999, 0.0, 1821.8247459621357, 0.0, 1.1120265688276236, 0, 2578.0, 0.0, 1.0, 0.0, 0.0, 1.0, 1, 100.0, 1821.8247459621357, 0.0, 1, 1.0, 0, 1.0
4264, 'GF ', 249.99999999999997, 0.0, 231.11144497839135, 0.0, 1.0914976706994448, 0, 300.0, 0.0, 1.0, 0.0, 0.0, 1.0, 1, 100.0, 231.11144497839135, 0.0, 1, 1.0, 0, 1.0
4245, 'GF ', 4.471, 0.0, 1059.1605927573025, 0.0, 1.0160742258522941, 0, 1333.0, 0.0, 1.0, 0.0, 0.0, 1.0, 1, 100.0, 1059.1605927573025, 0.0, 1, 1.0, 0, 1.0
2631, 'GF ', 231.99999999999997, 57.55989797474937, 428.098119594095, 0.0, 1.018, 0, 520.0, 0.0, 1.0, 0.0, 0.0, 1.0, 1, 100.0, 428.098119594095, 0.0, 1, 1.0, 0, 1.0
6553, 'GF ', 75.0, 0.0, 108.05406054378521, 0.0, 1.096173037531036, 0, 152.0, 0.0, 1.0, 0.0, 0.0, 1.0, 1, 100.0, 108.05406054378521, 0.0, 1, 1.0, 0, 1.0
2434, 'GF ', 500.00000000000006, -224.2798798036974, 1060.8844664948206, 0.0, 1.02, 0, 1489.0, 0.0, 1.0, 0.0, 0.0, 1.0, 1, 100.0, 1060.8844664948206, 0.0, 1, 1.0, 0, 1.0
4241, 'GF ', 2.4830000000000005, 0.0, 516.8215359289899, 0.0, 1.0160742339242885, 0, 740.0, 0.0, 1.0, 0.0, 0.0, 1.0, 1, 100.0, 516.8215359289899, 0.0, 1, 1.0, 0, 1.0
1434, 'GF ', 520.0000000000001, 0.0, 498.47628328737983, 0.0, 1.0131474402609133, 0, 638.0, 0.0, 1.0, 0.0, 0.0, 1.0, 1, 100.0, 498.47628328737983, 0.0, 1, 1.0, 0, 1.0
7035, 'GF ', 175.00000000000003, 0.0, 263.03526617166756, 0.0, 1.0631033456633694, 0, 391.0, 0.0, 1.0, 0.0, 0.0, 1.0, 1, 100.0, 263.03526617166756, 0.0, 1, 1.0, 0, 1.0
1453, 'GF ', 1352.9999999999998, 0.0, 1772.1503607905283, 0.0, 1.0352583774246238, 0, 2419.0, 0.0, 1.0, 0.0, 0.0, 1.0, 1, 100.0, 1772.1503607905283, 0.0, 1, 1.0, 0, 1.0
6537, 'GF ', 200.0, 0.0, 270.5896916920525, 0.0, 1.1215043732232282, 0, 395.0, 0.0, 1.0, 0.0, 0.0, 1.0, 1, 100.0, 270.5896916920525, 0.0, 1, 1.0, 0, 1.0
3432, 'NP ', 112.38, 119.2139001418536, 2749.815420169143, 0.0, 1.00065, 0, 3746.0, 0.0, 1.0, 0.0, 0.0, 1.0, 1, 100.0, 2749.815420169143, 0.0, 1, 1.0, 0, 1.0
7040, 'P ', 150.27, 317.8448373109695, 363.6245333444926, 0.0, 1.06004, 0, 509.0, 0.0, 1.0, 0.0, 0.0, 1.0, 1, 100.0, 363.6245333444926, 0.0, 1, 1.0, 0, 1.0
2403, 'GF ', 41.0, -1.026640082822735, 139.0525485203346, 0.0, 1.0228, 0, 207.0, 0.0, 1.0, 0.0, 0.0, 1.0, 1, 100.0, 139.0525485203346, 0.0, 1, 1.0, 0, 1.0
3104, 'GF ', 12.0, 1.1137259398629478, 40.97683796976043, 0.0, 0.9873, 0, 61.0, 0.0, 1.0, 0.0, 0.0, 1.0, 1, 100.0, 40.97683796976043, 0.0, 1, 1.0, 0, 1.0
3101, 'GF ', 13.0, 0.32857580942060743, 45.007346622523755, 0.0, 0.98582, 0, 67.0, 0.0, 1.0, 0.0, 0.0, 1.0, 1, 100.0, 45.007346622523755, 0.0, 1, 1.0, 0, 1.0
3913, 'GF ', 13.0, -8.675456799599928, 43.66384373826932, 0.0, 0.98301, 0, 65.0, 0.0, 1.0, 0.0, 0.0, 1.0, 1, 100.0, 43.66384373826932, 0.0, 1, 1.0, 0, 1.0
3203, 'GF ', 26.0, 0.8994182759262795, 87.32768747653864, 0.0, 0.99787, 0, 130.0, 0.0, 1.0, 0.0, 0.0, 1.0, 1, 100.0, 87.32768747653864, 0.0, 1, 1.0, 0, 1.0
8003, 'GF ', 26.000000000000004, -19.516259092282638, 86.65593603441141, 0.0, 1.075, 0, 129.0, 0.0, 1.0, 0.0, 0.0, 1.0, 1, 100.0, 86.65593603441141, 0.0, 1, 1.0, 0, 1.0
6510, 'GF ', 46.00000000000001, 362.5546171340098, 153.83108024713343, 0.0, 0.928, 0, 229.0, 0.0, 1.0, 0.0, 0.0, 1.0, 1, 100.0, 153.83108024713343, 0.0, 1, 1.0, 0, 1.0
1401, 'GF ', 85.0, 580.7759167652185, 285.49436290406857, 0.0, 1.035, 0, 425.0, 0.0, 1.0, 0.0, 0.0, 1.0, 1, 100.0, 285.49436290406857, 0.0, 1, 1.0, 0, 1.0
1301, 'GF ', 35.0, 35.3484510336208, 118.22825381439077, 0.0, 1.045, 0, 176.0, 0.0, 1.0, 0.0, 0.0, 1.0, 1, 100.0, 118.22825381439077, 0.0, 1, 1.0, 0, 1.0
3202, 'GF ', 23.0, -0.8255610417073188, 77.92316728675755, 0.0, 0.99602, 0, 116.0, 0.0, 1.0, 0.0, 0.0, 1.0, 1, 100.0, 77.92316728675755, 0.0, 1, 1.0, 0, 1.0
2203, 'GF ', 67.0, 175.12664521892617, 226.38023599687315, 0.0, 1.005, 0, 337.0, 0.0, 1.0, 0.0, 0.0, 1.0, 1, 100.0, 226.38023599687315, 0.0, 1, 1.0, 0, 1.0
2613, 'GF ', 13.0, 9.916201058604157, 42.320340854014866, 0.0, 0.99456, 0, 63.0, 0.0, 1.0, 0.0, 0.0, 1.0, 1, 100.0, 42.320340854014866, 0.0, 1, 1.0, 0, 1.0
3305, 'GF ', 17.0, 1.0201452697409026, 57.09887258081372, 0.0, 0.9981, 0, 85.0, 0.0, 1.0, 0.0, 0.0, 1.0, 1, 100.0, 57.09887258081372, 0.0, 1, 1.0, 0, 1.0
2407, 'GF ', 68.0, 0.019670599871385867, 229.73899320750925, 0.0, 0.97137, 0, 342.0, 0.0, 1.0, 0.0, 0.0, 1.0, 1, 100.0, 229.73899320750925, 0.0, 1, 1.0, 0, 1.0
2401, 'GF ', 34.99999999999999, 5.321502257152493, 116.8847509301363, 0.0, 1.04969, 0, 174.0, 0.0, 1.0, 0.0, 0.0, 1.0, 1, 100.0, 116.8847509301363, 0.0, 1, 1.0, 0, 1.0
3501, 'GF ', 25.0, 0.2708349252757168, 82.62542738164807, 0.0, 1.0, 0, 123.0, 0.0, 1.0, 0.0, 0.0, 1.0, 1, 100.0, 82.62542738164807, 0.0, 1, 1.0, 0, 1.0
2615, 'GF ', 32.00000000000001, -2.062631446859064, 106.13672785610079, 0.0, 1.00558, 0, 158.0, 0.0, 1.0, 0.0, 0.0, 1.0, 1, 100.0, 106.13672785610079, 0.0, 1, 1.0, 0, 1.0
2400, 'GF ', 33.00000000000001, -4.892158113173621, 111.51073939311857, 0.0, 1.0244, 0, 166.0, 0.0, 1.0, 0.0, 0.0, 1.0, 1, 100.0, 111.51073939311857, 0.0, 1, 1.0, 0, 1.0
1004, 'GF ', 9.0, 387.4227324494462, 30.22881489572491, 0.0, 1.04133, 0, 45.0, 0.0, 1.0, 0.0, 0.0, 1.0, 1, 100.0, 30.22881489572491, 0.0, 1, 1.0, 0, 1.0
2406, 'GF ', 29.0, 0.03836621212271017, 97.40395910844693, 0.0, 1.00824, 0, 145.0, 0.0, 1.0, 0.0, 0.0, 1.0, 1, 100.0, 97.40395910844693, 0.0, 1, 1.0, 0, 1.0
3805, 'GF ', 20.0, 79.09427970725984, 65.83164132846757, 0.0, 1.035, 0, 98.0, 0.0, 1.0, 0.0, 0.0, 1.0, 1, 100.0, 65.83164132846757, 0.0, 1, 1.0, 0, 1.0
3403, 'GF ', 20.0, 25.533033762969303, 68.51864709697647, 0.0, 1.0, 0, 102.0, 0.0, 1.0, 0.0, 0.0, 1.0, 1, 100.0, 68.51864709697647, 0.0, 1, 1.0, 0, 1.0
8005, 'GF ', 52.0, -19.33292565659618, 174.65537495307728, 0.0, 0.97407, 0, 260.0, 0.0, 1.0, 0.0, 0.0, 1.0, 1, 100.0, 174.65537495307728, 0.0, 1, 1.0, 0, 1.0
1003, 'GF ', 19.0, 18.74525111447567, 63.144635559958694, 0.0, 0.97343, 0, 94.0, 0.0, 1.0, 0.0, 0.0, 1.0, 1, 100.0, 63.144635559958694, 0.0, 1, 1.0, 0, 1.0
1303, 'GF ', 45.0, 376.05600189691756, 150.47232303649733, 0.0, 1.005, 0, 224.0, 0.0, 1.0, 0.0, 0.0, 1.0, 1, 100.0, 150.47232303649733, 0.0, 1, 1.0, 0, 1.0
2409, 'GF ', 63.0, -4.128345381388044, 212.27345571220158, 0.0, 1.02, 0, 316.0, 0.0, 1.0, 0.0, 0.0, 1.0, 1, 100.0, 212.27345571220158, 0.0, 1, 1.0, 0, 1.0
1101, 'GF ', 58.99999999999999, 81.56724176550902, 198.16667542752995, 0.0, 1.01, 0, 295.0, 0.0, 1.0, 0.0, 0.0, 1.0, 1, 100.0, 198.16667542752995, 0.0, 1, 1.0, 0, 1.0
2405, 'GF ', 33.00000000000001, -2.592891713497457, 109.49548506673689, 0.0, 1.01245, 0, 163.0, 0.0, 1.0, 0.0, 0.0, 1.0, 1, 100.0, 109.49548506673689, 0.0, 1, 1.0, 0, 1.0
2411, 'GF ', 43.0, 25.97474179447018, 143.7548086152251, 0.0, 1.02022, 0, 214.0, 0.0, 1.0, 0.0, 0.0, 1.0, 1, 100.0, 143.7548086152251, 0.0, 1, 1.0, 0, 1.0
3303, 'GF ', 25.0, 157.18946551141616, 82.62542738164807, 0.0, 1.0, 0, 123.0, 0.0, 1.0, 0.0, 0.0, 1.0, 1, 100.0, 82.62542738164807, 0.0, 1, 1.0, 0, 1.0
8004, 'GF ', 149.0, 303.1286525143456, 499.7830729426517, 0.0, 1.0, 0, 744.0, 0.0, 1.0, 0.0, 0.0, 1.0, 1, 100.0, 499.7830729426517, 0.0, 1, 1.0, 0, 1.0
3302, 'GF ', 14.000000000000004, -0.7760828328304684, 45.67909806465097, 0.0, 0.98522, 0, 68.0, 0.0, 1.0, 0.0, 0.0, 1.0, 1, 100.0, 45.67909806465097, 0.0, 1, 1.0, 0, 1.0
3103, 'GF ', 17.0, 97.34180042095984, 55.755369696559285, 0.0, 1.0, 0, 83.0, 0.0, 1.0, 0.0, 0.0, 1.0, 1, 100.0, 55.755369696559285, 0.0, 1, 1.0, 0, 1.0
3924, 'GF ', 13.0, -55.5277149461394, 44.33559518039653, 0.0, 0.99219, 0, 66.0, 0.0, 1.0, 0.0, 0.0, 1.0, 1, 100.0, 44.33559518039653, 0.0, 1, 1.0, 0, 1.0
3204, 'GF ', 26.0, 260.01065880444224, 88.67119036079306, 0.0, 1.01, 0, 132.0, 0.0, 1.0, 0.0, 0.0, 1.0, 1, 100.0, 88.67119036079306, 0.0, 1, 1.0, 0, 1.0
3304, 'GF ', 21.0, -2.0269603542397987, 70.53390142335812, 0.0, 0.98957, 0, 105.0, 0.0, 1.0, 0.0, 0.0, 1.0, 1, 100.0, 70.53390142335812, 0.0, 1, 1.0, 0, 1.0
2502, 'GF ', 93.0, 5.327927618027505, 313.7079234734118, 0.0, 1.02225, 0, 467.0, 0.0, 1.0, 0.0, 0.0, 1.0, 1, 100.0, 313.7079234734118, 0.0, 1, 1.0, 0, 1.0
1402, 'GF ', 70.0, -0.27678599068538884, 234.44125330239984, 0.0, 1.05807, 0, 349.0, 0.0, 1.0, 0.0, 0.0, 1.0, 1, 100.0, 234.44125330239984, 0.0, 1, 1.0, 0, 1.0
2408, 'GF ', 69.0, 105.5802738090053, 231.0824960917638, 0.0, 1.009, 0, 344.0, 0.0, 1.0, 0.0, 0.0, 1.0, 1, 100.0, 231.0824960917638, 0.0, 1, 1.0, 0, 1.0
3907, 'GF ', 18.0, 1.0566024019143694, 61.12938123357705, 0.0, 0.97274, 0, 91.0, 0.0, 1.0, 0.0, 0.0, 1.0, 1, 100.0, 61.12938123357705, 0.0, 1, 1.0, 0, 1.0
3201, 'GF ', 18.0, -0.9646645004706403, 61.12938123357705, 0.0, 0.99582, 0, 91.0, 0.0, 1.0, 0.0, 0.0, 1.0, 1, 100.0, 61.12938123357705, 0.0, 1, 1.0, 0, 1.0
3401, 'GF ', 21.999999999999996, -14.516151415066513, 73.89265863399422, 0.0, 0.97902, 0, 110.0, 0.0, 1.0, 0.0, 0.0, 1.0, 1, 100.0, 73.89265863399422, 0.0, 1, 1.0, 0, 1.0
2202, 'GF ', 60.99999999999999, -5.033868354204266, 204.88418984880215, 0.0, 0.98409, 0, 305.0, 0.0, 1.0, 0.0, 0.0, 1.0, 1, 100.0, 204.88418984880215, 0.0, 1, 1.0, 0, 1.0
2618, 'GF ', 34.99999999999999, -0.32568614554715186, 116.8847509301363, 0.0, 1.01245, 0, 174.0, 0.0, 1.0, 0.0, 0.0, 1.0, 1, 100.0, 116.8847509301363, 0.0, 1, 1.0, 0, 1.0
3205, 'GF ', 22.0, 0.7258261879291955, 72.54915574973978, 0.0, 0.99802, 0, 108.0, 0.0, 1.0, 0.0, 0.0, 1.0, 1, 100.0, 72.54915574973978, 0.0, 1, 1.0, 0, 1.0
3918, 'GF ', 13.0, 0.4659249235174278, 42.320340854014866, 0.0, 0.99368, 0, 63.0, 0.0, 1.0, 0.0, 0.0, 1.0, 1, 100.0, 42.320340854014866, 0.0, 1, 1.0, 0, 1.0
3405, 'GF ', 18.0, -0.05892504927346447, 59.114126907195384, 0.0, 0.96928, 0, 88.0, 0.0, 1.0, 0.0, 0.0, 1.0, 1, 100.0, 59.114126907195384, 0.0, 1, 1.0, 0, 1.0
2402, 'GF ', 43.0, 5.093929299930203, 143.0830571730979, 0.0, 1.02985, 0, 213.0, 0.0, 1.0, 0.0, 0.0, 1.0, 1, 100.0, 143.0830571730979, 0.0, 1, 1.0, 0, 1.0
7001, 'GF ', 70.0, 891.2024128324115, 234.44125330239984, 0.0, 1.05, 0, 349.0, 0.0, 1.0, 0.0, 0.0, 1.0, 1, 100.0, 234.44125330239984, 0.0, 1, 1.0, 0, 1.0
2503, 'GF ', 73.0, 3.7569722330242357, 244.5175249343082, 0.0, 1.009, 0, 364.0, 0.0, 1.0, 0.0, 0.0, 1.0, 1, 100.0, 244.5175249343082, 0.0, 1, 1.0, 0, 1.0
3404, 'GF ', 17.0, -14.45143203390717, 57.77062402294095, 0.0, 0.99111, 0, 86.0, 0.0, 1.0, 0.0, 0.0, 1.0, 1, 100.0, 57.77062402294095, 0.0, 1, 1.0, 0, 1.0
2410, 'GF ', 62.0, 0.845979416792877, 208.91469850156548, 0.0, 1.00702, 0, 311.0, 0.0, 1.0, 0.0, 0.0, 1.0, 1, 100.0, 208.91469850156548, 0.0, 1, 1.0, 0, 1.0
4263, 'H ', 8243.0, 1512.329725960972, 9633.094921220802, 0.0, 1.13267, 0, 12613.0, 0.0, 1.0, 0.0, 0.0, 1.0, 1, 100.0, 9633.094921220802, 0.0, 1, 1.0, 0, 1.0
4243, 'NH ', 9.306, 114.40939731805433, 2033.9917453126504, 0.0, 1.02, 0, 2724.0, 0.0, 1.0, 0.0, 0.0, 1.0, 1, 100.0, 2033.9917453126504, 0.0, 1, 1.0, 0, 1.0
4269, 'H ', 2674.0, 1107.7075924542614, 2686.274431271031, 0.0, 1.12161, 0, 3517.0, 0.0, 1.0, 0.0, 0.0, 1.0, 1, 100.0, 2686.274431271031, 0.0, 1, 1.0, 0, 1.0
6544, 'H ', 1156.0, -203.28458519319446, 1810.947473354763, 0.0, 1.07761, 0, 2671.0, 0.0, 1.0, 0.0, 0.0, 1.0, 1, 100.0, 1810.947473354763, 0.0, 1, 1.0, 0, 1.0
2637, 'H ', 12.999999999999998, 54.52673535378981, 97.2908590259126, 0.0, 1.01528, 0, 87.0, 0.0, 1.0, 0.0, 0.0, 1.0, 1, 100.0, 97.2908590259126, 0.0, 1, 1.0, 0, 1.0
2912, 'SH ', 206.0, 21.4625569991996, 1085.8291762519555, 0.0, 1.00984, 0, 1460.0, 0.0, 1.0, 0.0, 0.0, 1.0, 1, 100.0, 1085.8291762519555, 0.0, 1, 1.0, 0, 1.0
2638, 'H ', 0.0, 57.576075594389046, 282.3988513609784, 0.0, 1.02018, 0, 407.0, 0.0, 1.0, 0.0, 0.0, 1.0, 1, 100.0, 282.3988513609784, 0.0, 1, 1.0, 0, 1.0
4268, 'H ', 4261.999999999999, 553.2111316372732, 4230.518833577035, 0.0, 1.09978, 0, 5539.0, 0.0, 1.0, 0.0, 0.0, 1.0, 1, 100.0, 4230.518833577035, 0.0, 1, 1.0, 0, 1.0
4259, 'H ', 1617.0, 1198.8151161214128, 2168.266554473873, 0.0, 1.13704, 0, 2839.0, 0.0, 1.0, 0.0, 0.0, 1.0, 1, 100.0, 2168.266554473873, 0.0, 1, 1.0, 0, 1.0
6551, 'H ', 259.06500000000005, -118.5412711957268, 351.91875660441855, 0.0, 1.06507, 0, 303.0, 0.0, 1.0, 0.0, 0.0, 1.0, 1, 100.0, 351.91875660441855, 0.0, 1, 1.0, 0, 1.0
6535, 'H ', 2172.555, 530.9250426133567, 1867.664129668394, 0.0, 1.13221, 0, 2541.0, 0.0, 1.0, 0.0, 0.0, 1.0, 1, 100.0, 1867.664129668394, 0.0, 1, 1.0, 0, 1.0
8037, 'H ', 385.0, 201.34871001520702, 438.9864690397644, 0.0, 1.00333, 0, 544.0, 0.0, 1.0, 0.0, 0.0, 1.0, 1, 100.0, 438.9864690397644, 0.0, 1, 1.0, 0, 1.0
3931, 'NH ', 1212.0, 259.02759348631173, 2134.055126103822, 0.0, 1.07145, 0, 2875.0, 0.0, 1.0, 0.0, 0.0, 1.0, 1, 100.0, 2134.055126103822, 0.0, 1, 1.0, 0, 1.0
8033, 'H ', 1156.0, 567.556807062921, 1088.9367497701598, 0.0, 1.07762, 0, 1394.0, 0.0, 1.0, 0.0, 0.0, 1.0, 1, 100.0, 1088.9367497701598, 0.0, 1, 1.0, 0, 1.0
1443, 'H ', 636.9999999999999, 99.84015451298909, 919.7333587785103, 0.0, 1.08082, 0, 1199.0, 0.0, 1.0, 0.0, 0.0, 1.0, 1, 100.0, 919.7333587785103, 0.0, 1, 1.0, 0, 1.0
3731, 'NH ', 207.76500000000001, 89.80174381869865, 215.976529396136, 0.0, 1.00056, 0, 243.0, 0.0, 1.0, 0.0, 0.0, 1.0, 1, 100.0, 215.976529396136, 0.0, 1, 1.0, 0, 1.0
1447, 'H ', 1990.44, 39.41288627577666, 1785.6561203098427, 0.0, 1.04514, 0, 2328.0, 0.0, 1.0, 0.0, 0.0, 1.0, 1, 100.0, 1785.6561203098427, 0.0, 1, 1.0, 0, 1.0
3531, 'NH ', 13.000000000000002, 1.4282116163166847, 18.55855597830823, 0.0, 1.00057, 0, 24.0, 0.0, 1.0, 0.0, 0.0, 1.0, 1, 100.0, 18.55855597830823, 0.0, 1, 1.0, 0, 1.0
2903, 'H ', 263.0, 54.3994019779712, 319.39508449567603, 0.0, 1.03579, 0, 396.0, 0.0, 1.0, 0.0, 0.0, 1.0, 1, 100.0, 319.39508449567603, 0.0, 1, 1.0, 0, 1.0
4273, 'H ', 247.0, 99.20957001141902, 426.2481730166126, 0.0, 1.05964, 0, 558.0, 0.0, 1.0, 0.0, 0.0, 1.0, 1, 100.0, 426.2481730166126, 0.0, 1, 1.0, 0, 1.0
7047, 'H ', 433.99999999999994, -332.1697321709631, 513.4542628121808, 0.0, 1.00996, 0, 672.0, 0.0, 1.0, 0.0, 0.0, 1.0, 1, 100.0, 513.4542628121808, 0.0, 1, 1.0, 0, 1.0
4249, 'H ', 348.0, 501.9830350417861, 727.0008115538799, 0.0, 1.08568, 0, 952.0, 0.0, 1.0, 0.0, 0.0, 1.0, 1, 100.0, 727.0008115538799, 0.0, 1, 1.0, 0, 1.0
5031, 'H ', 6640.000000000001, -621.2112912372014, 7860.920878704352, 0.0, 1.04438, 0, 10747.0, 0.0, 1.0, 0.0, 0.0, 1.0, 1, 100.0, 7860.920878704352, 0.0, 1, 1.0, 0, 1.0
7034, 'H ', 100.0, 202.94751384525838, 192.1933434071014, 0.0, 1.06786, 0, 275.0, 0.0, 1.0, 0.0, 0.0, 1.0, 1, 100.0, 192.1933434071014, 0.0, 1, 1.0, 0, 1.0
4256, 'H ', 1074.0000000000002, 724.2279132632406, 2728.1916684866555, 0.0, 1.12796, 0, 3572.0, 0.0, 1.0, 0.0, 0.0, 1.0, 1, 100.0, 2728.1916684866555, 0.0, 1, 1.0, 0, 1.0
7038, 'C ', 1210.0, 337.25734652452473, 999.0, -999.0, 1.06004, 0, 3127.0, 0.0, 1.0, 0.0, 0.0, 1.0, 1, 100.0, 2970.65, 0.0, 1, 1.0, 0, 1.0
4267, 'G ', 2061.0, 407.94073681688803, 999.0, -999.0, 1.09978, 0, 2170.0, 0.0, 1.0, 0.0, 0.0, 1.0, 1, 100.0, 2061.5, 0.0, 1, 1.0, 0, 1.0
4265, 'N ', 999.9999999999999, 374.1029923716647, 999.0, -999.0, 1.09978, 0, 1200.0, 0.0, 1.0, 0.0, 0.0, 1.0, 1, 100.0, 1140.0, 0.0, 1, 1.0, 0, 1.0
1446, 'G ', 1971.0, 38.883838119666315, 999.0, -999.0, 1.04514, 0, 2167.0, 0.0, 1.0, 0.0, 0.0, 1.0, 1, 100.0, 2058.65, 0.0, 1, 1.0, 0, 1.0
6536, 'G ', 1159.0, -54.42350383890434, 999.0, -999.0, 1.12, 0, 1272.0, 0.0, 1.0, 0.0, 0.0, 1.0, 1, 100.0, 1208.4, 0.0, 1, 1.0, 0, 1.0
4248, 'G ', 992.0, 509.36767640732006, 999.0, -999.0, 1.08568, 0, 2710.0, 0.0, 1.0, 0.0, 0.0, 1.0, 1, 100.0, 2574.5, 0.0, 1, 1.0, 0, 1.0
1439, 'G ', 2064.0, 81.62165084493256, 999.0, -999.0, 1.01081, 0, 4934.0, 0.0, 1.0, 0.0, 0.0, 1.0, 1, 100.0, 4687.3, 0.0, 1, 1.0, 0, 1.0
6554, 'G ', 673.0, 173.02320527248392, 999.0, -999.0, 1.1, 0, 1369.0, 0.0, 1.0, 0.0, 0.0, 1.0, 1, 100.0, 1300.5499999999997, 0.0, 1, 1.0, 0, 1.0
1436, 'C ', 1838.0, 158.1839537820511, 999.0, -999.0, 1.04386, 0, 1944.0, 0.0, 1.0, 0.0, 0.0, 1.0, 1, 100.0, 1846.8000000000002, 0.0, 1, 1.0, 0, 1.0
2914, 'RG ', 1096.0, 44.218018049894816, 999.0, -999.0, 1.00984, 0, 5451.0, 0.0, 1.0, 0.0, 0.0, 1.0, 1, 100.0, 5178.450000000001, 0.0, 1, 1.0, 0, 1.0
1448, 'C ', 212.0, 232.99282373092987, 999.0, -999.0, 1.00879, 0, 418.0, 0.0, 1.0, 0.0, 0.0, 1.0, 1, 100.0, 397.1, 0.0, 1, 1.0, 0, 1.0
4244, 'NB ', 1.155, 114.40795753671304, 999.0, -999.0, 1.02, 0, 345.0, 0.0, 1.0, 0.0, 0.0, 1.0, 1, 100.0, 327.75, 0.0, 1, 1.0, 0, 1.0
3939, 'NG ', 1.0, 67.13527854918128, 999.0, -999.0, 1.00114, 0, 62.0, 0.0, 1.0, 0.0, 0.0, 1.0, 1, 100.0, 58.89999999999999, 0.0, 1, 1.0, 0, 1.0
1450, 'G ', 3576.9999999999995, 327.34818750319073, 999.0, -999.0, 1.00879, 0, 7011.0, 0.0, 1.0, 0.0, 0.0, 1.0, 1, 100.0, 6660.45, 0.0, 1, 1.0, 0, 1.0
3935, 'G ', 2269.0, 204.15773091162933, 999.0, -999.0, 1.00486, 0, 3947.0, 0.0, 1.0, 0.0, 0.0, 1.0, 1, 100.0, 3749.6499999999996, 0.0, 1, 1.0, 0, 1.0
6549, 'C ', 2527.0, -62.92890916140545, 999.0, -999.0, 1.06507, 0, 2660.0, 0.0, 1.0, 0.0, 0.0, 1.0, 1, 100.0, 2527.0, 0.0, 1, 1.0, 0, 1.0
1452, 'G ', 4970.0, 537.4833584394653, 999.0, -999.0, 1.04071, 0, 9170.0, 0.0, 1.0, 0.0, 0.0, 1.0, 1, 100.0, 8711.5, 0.0, 1, 1.0, 0, 1.0
6543, 'G ', 100.0, -214.66531317781175, 999.0, -999.0, 1.07761, 0, 226.0, 0.0, 1.0, 0.0, 0.0, 1.0, 1, 100.0, 214.7, 0.0, 1, 1.0, 0, 1.0
2030, 'G ', 1812.9999999999998, 229.00536780333655, 999.0, -999.0, 1.0015, 0, 2140.0, 0.0, 1.0, 0.0, 0.0, 1.0, 1, 100.0, 2032.9999999999998, 0.0, 1, 1.0, 0, 1.0
5037, 'C ', 4052.0000000000005, 726.9779437936917, 999.0, -999.0, 1.06127, 0, 13039.0, 0.0, 1.0, 0.0, 0.0, 1.0, 1, 100.0, 12387.05, 0.0, 1, 1.0, 0, 1.0
4239, 'DG ', 679.0000000000001, -1.0696639109150352, 999.0, -999.0, 1.01899, 0, 1497.0, 0.0, 1.0, 0.0, 0.0, 1.0, 1, 100.0, 1422.1500000000003, 0.0, 1, 1.0, 0, 1.0
6547, 'C ', 3153.0, 851.1897326896494, 999.0, -999.0, 1.12, 0, 4594.0, 0.0, 1.0, 0.0, 0.0, 1.0, 1, 100.0, 4364.3, 0.0, 1, 1.0, 0, 1.0
8035, 'G ', 2756.0, 257.0235292832364, 999.0, -999.0, 1.00333, 0, 3754.0, 0.0, 1.0, 0.0, 0.0, 1.0, 1, 100.0, 3566.3, 0.0, 1, 1.0, 0, 1.0
5033, 'R ', 74.0, 542.2157185819556, 999.0, -999.0, 1.06127, 0, 108.0, 0.0, 1.0, 0.0, 0.0, 1.0, 1, 100.0, 102.60000000000001, 0.0, 1, 1.0, 0, 1.0
7037, 'G ', 1348.0, 222.8494961423573, 999.0, -999.0, 1.06786, 0, 3239.0, 0.0, 1.0, 0.0, 0.0, 1.0, 1, 100.0, 3077.05, 0.0, 1, 1.0, 0, 1.0
2030, 'E ', 664.05, 83.87811058455908, 999.0, -999.0, 1.0015, 0, 699.0, 0.0, 1.0, 0.0, 0.0, 1.0, 1, 100.0, 664.05, 0.0, 1, 1.0, 0, 1.0
3942, 'MG ', 206.00000000000003, 43.83342502847054, 999.0, -999.0, 1.00044, 0, 541.0, 0.0, 1.0, 0.0, 0.0, 1.0, 1, 100.0, 513.95, 0.0, 1, 1.0, 0, 1.0
4236, 'NG ', 208.99999999999997, 41.16325533996686, 999.0, -999.0, 1.03567, 0, 2025.0, 0.0, 1.0, 0.0, 0.0, 1.0, 1, 100.0, 1923.75, 0.0, 1, 1.0, 0, 1.0
6552, 'G ', 328.0, -118.185259469277, 999.0, -999.0, 1.06507, 0, 418.0, 0.0, 1.0, 0.0, 0.0, 1.0, 1, 100.0, 397.1, 0.0, 1, 1.0, 0, 1.0
4246, 'CG ', 2.904, 114.40807740969132, 999.0, -999.0, 1.02, 0, 865.0, 0.0, 1.0, 0.0, 0.0, 1.0, 1, 100.0, 821.75, 0.0, 1, 1.0, 0, 1.0
1451, 'N ', 2251.0, 400.63524042017605, 999.0, -999.0, 1.04071, 0, 4210.0, 0.0, 1.0, 0.0, 0.0, 1.0, 1, 100.0, 3999.5, 0.0, 1, 1.0, 0, 1.0
4271, 'C ', 1110.0, 968.1861152483314, 999.0, -999.0, 1.12, 0, 1460.0, 0.0, 1.0, 0.0, 0.0, 1.0, 1, 100.0, 1386.9999999999998, 0.0, 1, 1.0, 0, 1.0
6538, 'B ', 50.0, -67.76803520026947, 999.0, -999.0, 1.12, 0, 122.0, 0.0, 1.0, 0.0, 0.0, 1.0, 1, 100.0, 115.9, 0.0, 1, 1.0, 0, 1.0
6540, 'G ', 100.0, -75.84476487373924, 999.0, -999.0, 1.1, 0, 250.0, 0.0, 1.0, 0.0, 0.0, 1.0, 1, 100.0, 237.50000000000003, 0.0, 1, 1.0, 0, 1.0
7041, 'SC ', 0.0, 317.54082539839715, 999.0, -999.0, 1.06004, 0, 100.0, 0.0, 1.0, 0.0, 0.0, 1.0, 1, 100.0, 0.1, 0.0, 1, 1.0, 0, 1.0
4235, 'NB ', 30.0, -6.300127000301069, 999.0, -999.0, 1.01496, 0, 96.0, 0.0, 1.0, 0.0, 0.0, 1.0, 1, 100.0, 91.2, 0.0, 1, 1.0, 0, 1.0
6541, 'C ', 2340.0, -41.99180485317747, 999.0, -999.0, 1.1, 0, 2488.0, 0.0, 1.0, 0.0, 0.0, 1.0, 1, 100.0, 2363.6, 0.0, 1, 1.0, 0, 1.0
6557, 'E ', 368.00000000000006, 169.7315396318191, 590.0, -590.0, 1.1, 0, 751.0, 0.0, 1.0, 0.0, 0.0, 1.0, 1, 100.0, 713.45, 0.0, 1, 1.0, 0, 1.0
7036, 'C ', 1465.0, 226.4751081675023, 999.0, -999.0, 1.06786, 0, 3276.0, 0.0, 1.0, 0.0, 0.0, 1.0, 1, 100.0, 3112.2, 0.0, 1, 1.0, 0, 1.0
4272, 'G ', 738.0, 962.6200842603089, 999.0, -999.0, 1.12, 0, 970.0, 0.0, 1.0, 0.0, 0.0, 1.0, 1, 100.0, 921.5, 0.0, 1, 1.0, 0, 1.0
4257, 'G ', 85.99999999999999, 206.37438227275067, 999.0, -999.0, 1.12, 0, 150.0, 0.0, 1.0, 0.0, 0.0, 1.0, 1, 100.0, 142.5, 0.0, 1, 1.0, 0, 1.0
3936, 'C ', 1537.0, 416.88982659985226, 999.0, -999.0, 1.06198, 0, 1618.0, 0.0, 1.0, 0.0, 0.0, 1.0, 1, 100.0, 1537.1, 0.0, 1, 1.0, 0, 1.0
2910, 'TG ', 152.0, 109.40857530911454, 999.0, -999.0, 1.00749, 0, 733.0, 0.0, 1.0, 0.0, 0.0, 1.0, 1, 100.0, 696.35, 0.0, 1, 1.0, 0, 1.0
3940, 'SC ', 0.0, 67.13527105872495, 999.0, -999.0, 1.00114, 0, 500.0, 0.0, 1.0, 0.0, 0.0, 1.0, 1, 100.0, 0.1, 0.0, 1, 1.0, 0, 1.0
3945, 'DG ', 104.0, 80.70324635491845, 999.0, -999.0, 1.01213, 0, 177.0, 0.0, 1.0, 0.0, 0.0, 1.0, 1, 100.0, 168.15, 0.0, 1, 1.0, 0, 1.0
3941, 'NG ', 14.000000000000002, 43.51669631385529, 999.0, -999.0, 1.00044, 0, 38.0, 0.0, 1.0, 0.0, 0.0, 1.0, 1, 100.0, 36.1, 0.0, 1, 1.0, 0, 1.0
7046, 'C ', 1175.0, -320.55536248470906, 999.0, -999.0, 1.00996, 0, 1821.0, 0.0, 1.0, 0.0, 0.0, 1.0, 1, 100.0, 1729.9500000000003, 0.0, 1, 1.0, 0, 1.0
3531, 'CE ', 763.0000000000001, 83.82503563458697, 999.0, -999.0, 1.00057, 0, 1424.0, 0.0, 1.0, 0.0, 0.0, 1.0, 1, 100.0, 1352.8, 0.0, 1, 1.0, 0, 1.0
3831, 'NN ', 2108.0, 32.05727785698854, 999.0, -999.0, 1.04912, 0, 2323.0, 0.0, 1.0, 0.0, 0.0, 1.0, 1, 100.0, 2206.8500000000004, 0.0, 1, 1.0, 0, 1.0
1437, 'G ', 2564.9999999999995, 187.65388803338956, 999.0, -999.0, 1.04386, 0, 2700.0, 0.0, 1.0, 0.0, 0.0, 1.0, 1, 100.0, 2564.9999999999995, 0.0, 1, 1.0, 0, 1.0
4254, 'G ', 498.0, 353.58405729991966, 999.0, -999.0, 1.12, 0, 1656.0, 0.0, 1.0, 0.0, 0.0, 1.0, 1, 100.0, 1573.2, 0.0, 1, 1.0, 0, 1.0
4234, 'NG ', 67.0, -6.273999545108525, 999.0, -999.0, 1.01496, 0, 210.0, 0.0, 1.0, 0.0, 0.0, 1.0, 1, 100.0, 199.5, 0.0, 1, 1.0, 0, 1.0
5036, 'G ', 2995.0, 643.0335687730153, 999.0, -999.0, 1.06127, 0, 9636.0, 0.0, 1.0, 0.0, 0.0, 1.0, 1, 100.0, 9154.199999999999, 0.0, 1, 1.0, 0, 1.0
3944, 'NG ', 605.0, 85.04635437808821, 999.0, -999.0, 1.01213, 0, 1037.0, 0.0, 1.0, 0.0, 0.0, 1.0, 1, 100.0, 985.15, 0.0, 1, 1.0, 0, 1.0
2917, 'EG ', 473.00000000000006, 25.021344015105793, 999.0, -999.0, 1.00984, 0, 2292.0, 0.0, 1.0, 0.0, 0.0, 1.0, 1, 100.0, 2177.4, 0.0, 1, 1.0, 0, 1.0
7044, 'G ', 957.0, -325.08324415655716, 999.0, -999.0, 1.00996, 0, 1483.0, 0.0, 1.0, 0.0, 0.0, 1.0, 1, 100.0, 1408.85, 0.0, 1, 1.0, 0, 1.0
1441, 'C ', 529.9999999999999, 52.38383385671611, 999.0, -999.0, 1.01081, 0, 1268.0, 0.0, 1.0, 0.0, 0.0, 1.0, 1, 100.0, 1204.6, 0.0, 1, 1.0, 0, 1.0
2916, 'WG ', 1176.0, 47.78916354881953, 999.0, -999.0, 1.00984, 0, 5817.0, 0.0, 1.0, 0.0, 0.0, 1.0, 1, 100.0, 5526.15, 0.0, 1, 1.0, 0, 1.0
3950, 'CG ', 559.9999999999999, 135.7537054994255, 999.0, -999.0, 1.00226, 0, 1012.0, 0.0, 1.0, 0.0, 0.0, 1.0, 1, 100.0, 961.3999999999999, 0.0, 1, 1.0, 0, 1.0
2915, 'SG ', 861.0, 35.18442800188945, 999.0, -999.0, 1.00984, 0, 4110.0, 0.0, 1.0, 0.0, 0.0, 1.0, 1, 100.0, 3904.5000000000005, 0.0, 1, 1.0, 0, 1.0
3531, 'NE ', 287.99999999999994, 31.640380423015774, 999.0, -999.0, 1.00057, 0, 533.0, 0.0, 1.0, 0.0, 0.0, 1.0, 1, 100.0, 506.34999999999997, 0.0, 1, 1.0, 0, 1.0
2909, 'DG ', 214.99999999999997, 109.63685293558551, 999.0, -999.0, 1.00749, 0, 1035.0, 0.0, 1.0, 0.0, 0.0, 1.0, 1, 100.0, 983.25, 0.0, 1, 1.0, 0, 1.0
3948, 'MG ', 2256.0, 142.84420659848897, 999.0, -999.0, 1.01213, 0, 3853.0, 0.0, 1.0, 0.0, 0.0, 1.0, 1, 100.0, 3660.35, 0.0, 1, 1.0, 0, 1.0
1433, 'G ', 856.0, 261.1516317993402, 999.0, -999.0, 1.01695, 0, 1050.0, 0.0, 1.0, 0.0, 0.0, 1.0, 1, 100.0, 997.5, 0.0, 1, 1.0, 0, 1.0
2906, 'G ', 394.0, 55.202441894143846, 999.0, -999.0, 1.03579, 0, 586.0, 0.0, 1.0, 0.0, 0.0, 1.0, 1, 100.0, 556.7, 0.0, 1, 1.0, 0, 1.0
4262, 'B ', 500.0, 152.00000266065405, 999.0, -999.0, 1.12, 0, 711.0, 0.0, 1.0, 0.0, 0.0, 1.0, 1, 100.0, 675.4499999999999, 0.0, 1, 1.0, 0, 1.0
2908, 'EG ', 393.00000000000006, 110.70538086103237, 999.0, -999.0, 1.00749, 0, 1837.0, 0.0, 1.0, 0.0, 0.0, 1.0, 1, 100.0, 1745.1499999999999, 0.0, 1, 1.0, 0, 1.0
1444, 'C ', 2678.0, 143.3472072344777, 999.0, -999.0, 1.08082, 0, 4977.0, 0.0, 1.0, 0.0, 0.0, 1.0, 1, 100.0, 4728.15, 0.0, 1, 1.0, 0, 1.0
4247, 'NG ', 6.463000000000001, 114.40864032226595, 999.0, -999.0, 1.02, 0, 1927.0, 0.0, 1.0, 0.0, 0.0, 1.0, 1, 100.0, 1830.6499999999999, 0.0, 1, 1.0, 0, 1.0
6555, 'C ', 192.0, 168.7097854599546, 999.0, -999.0, 1.1, 0, 391.0, 0.0, 1.0, 0.0, 0.0, 1.0, 1, 100.0, 371.45, 0.0, 1, 1.0, 0, 1.0
3953, 'NG ', 360.0, 22.180853346874407, 999.0, -999.0, 1.00023, 0, 921.0, 0.0, 1.0, 0.0, 0.0, 1.0, 1, 100.0, 874.9500000000002, 0.0, 1, 1.0, 0, 1.0
3931, 'NB ', 235.0, 50.223997086867364, 999.0, -999.0, 1.07145, 0, 567.0, 0.0, 1.0, 0.0, 0.0, 1.0, 1, 100.0, 538.65, 0.0, 1, 1.0, 0, 1.0
4252, 'C ', 193.0, 351.46904016642253, 999.0, -999.0, 1.12, 0, 642.0, 0.0, 1.0, 0.0, 0.0, 1.0, 1, 100.0, 609.9, 0.0, 1, 1.0, 0, 1.0
5031, 'G ', 913.0, -85.41655254511518, 999.0, -999.0, 1.04438, 0, 2650.0, 0.0, 1.0, 0.0, 0.0, 1.0, 1, 100.0, 2517.5, 0.0, 1, 1.0, 0, 1.0
3951, 'NG ', 166.0, 133.61373580634287, 999.0, -999.0, 1.00226, 0, 312.0, 0.0, 1.0, 0.0, 0.0, 1.0, 1, 100.0, 296.40000000000003, 0.0, 1, 1.0, 0, 1.0
1432, 'C ', 693.0, 259.3136406786425, 999.0, -999.0, 1.01695, 0, 873.0, 0.0, 1.0, 0.0, 0.0, 1.0, 1, 100.0, 829.3499999999999, 0.0, 1, 1.0, 0, 1.0
4275, 'G ', 387.0, 100.00147267701107, 999.0, -999.0, 1.05964, 0, 872.0, 0.0, 1.0, 0.0, 0.0, 1.0, 1, 100.0, 828.4, 0.0, 1, 1.0, 0, 1.0
7043, 'G ', 2442.0000000000005, 397.91300685879804, 999.0, -999.0, 1.06004, 0, 6346.0, 0.0, 1.0, 0.0, 0.0, 1.0, 1, 100.0, 6028.7, 0.0, 1, 1.0, 0, 1.0
2905, 'E ', 563.0, 56.71150874516964, 999.0, -999.0, 1.03579, 0, 831.0, 0.0, 1.0, 0.0, 0.0, 1.0, 1, 100.0, 789.45, 0.0, 1, 1.0, 0, 1.0
2913, 'ND ', 0.0, 20.629608857504476, 7071.067811865476, 0.0, 1.1, 0, 100.0, 0.0, 1.0, 0.0, 0.0, 1.0, 1, 100.0, 7071.067811865476, 0.0, 1, 1.0, 0, 1.0
4238, 'ND ', 0.0, 40.85765052830244, 7071.067811865476, 0.0, 1.1, 0, 100.0, 0.0, 1.0, 0.0, 0.0, 1.0, 1, 100.0, 7071.067811865476, 0.0, 1, 1.0, 0, 1.0
4242, 'ND ', 619.7284146778529, 120.89372406866256, 7071.067811865476, 0.0, 1.1, 0, 100.0, 0.0, 1.0, 0.0, 0.0, 1.0, 1, 100.0, 7071.067811865476, 0.0, 1, 1.0, 0, 1.0
0 /End of Generator data, Begin Branch data
4005, 4006, '2', 0.0002, 0.00446, 0.305, 27102.86550064049, 27102.86550064049, 27102.86550064049, 0.0, 0.0, 0.0, 0.0, 1, 1, 0.0, 1, 1.0
2610, 2616, '1', 0.00201, 0.03074, 0.06886, 3927.8599970672403, 3927.8599970672403, 3927.8599970672403, 0.0, 0.0, 0.0, 0.0, 1, 1, 0.0, 1, 1.0
2605, 2607, '1', 0.0107, 0.07905, 0.3667, 1516.8475535871994, 1516.8475535871994, 1516.8475535871994, 0.0, 0.0, 0.0, 0.0, 1, 1, 0.0, 1, 1.0
2405, 2410, '1', 0.00065, 0.01187, 0.04672, 10178.537919009195, 10178.537919009195, 10178.537919009195, 0.0, 0.0, 0.0, 0.0, 1, 1, 0.0, 1, 1.0
2401, 2902, '1', 0.0019, 0.031, 4.1402, 3895.9234180667268, 3895.9234180667268, 3895.9234180667268, 0.0, 0.0, 0.0, 0.0, 1, 1, 0.0, 1, 1.0
2612, 2619, '1', 0.00027, 0.00393, 0.00918, 30716.463777825753, 30716.463777825753, 30716.463777825753, 0.0, 0.0, 0.0, 0.0, 1, 1, 0.0, 1, 1.0
4101, 4201, '2', 0.0002, 0.0082, 1.3, 14751.741719422807, 14751.741719422807, 14751.741719422807, 0.0, 0.0, 0.0, 0.0, 1, 1, 0.0, 1, 1.0
6503, 6533, '1', 0.0, 0.0001, 0.0, 100000.0, 100000.0, 100000.0, 0.0, 0.0, 0.0, 0.0, 1, 1, 0.0, 1, 1.0
2408, 2502, '1', 0.00312, 0.02886, 0.15252, 4168.375186302882, 4168.375186302882, 4168.375186302882, 0.0, 0.0, 0.0, 0.0, 1, 1, 0.0, 1, 1.0
6201, 6202, '1', 0.00179, 0.01405, 3.68, 8543.064448710798, 8543.064448710798, 8543.064448710798, 0.0, 0.0, 0.0, 0.0, 1, 1, 0.0, 1, 1.0
3203, 3303, '1', 0.0011, 0.0127, 0.048, 9492.04107065617, 9492.04107065617, 9492.04107065617, 0.0, 0.0, 0.0, 0.0, 1, 1, 0.0, 1, 1.0
...